REMARK SMILES C[C@]12CCC(=O)C=C1CC[C@@H]1[C@@H]2[C@@H](O)C[C@@]2(C)[C@H]1CC[C@]2(O)C(=O)CO
REMARK SMILES IDX 24 1 23 2 21 3 16 4 20 5 18 6 15 7 19 8 11 9 13 10 12 11
REMARK SMILES IDX 10 12 2 13 9 14 8 15 3 16 7 17 4 18 5 19 6 20 17 21 1 22
REMARK SMILES IDX 22 23 14 25 25 27 26 28
REMARK H PARENT 22 24 14 26 26 29
ROOT
ATOM      1  O   UNL     1       4.327   1.673   0.060  1.00  0.00    -0.294 OA
ATOM      2  C   UNL     1       4.412   0.468  -0.174  1.00  0.00     0.190 C 
ENDROOT
BRANCH   2   3
ATOM      3  C   UNL     1       3.201  -0.346  -0.521  1.00  0.00     0.131 C 
ATOM      4  C   UNL     1       1.892   0.163   0.144  1.00  0.00     0.009 C 
ATOM      5  C   UNL     1       3.303  -1.823  -0.078  1.00  0.00     0.044 C 
ATOM      6  C   UNL     1       0.998  -1.077  -0.074  1.00  0.00     0.002 C 
ATOM      7  C   UNL     1       1.202   1.357  -0.547  1.00  0.00     0.042 C 
ATOM      8  C   UNL     1       1.885  -2.236   0.371  1.00  0.00     0.008 C 
ATOM      9  C   UNL     1      -0.405  -0.939   0.538  1.00  0.00    -0.000 C 
ATOM     10  C   UNL     1      -0.248   1.582  -0.065  1.00  0.00     0.119 C 
ATOM     11  C   UNL     1      -1.120   0.289  -0.114  1.00  0.00     0.031 C 
ATOM     12  C   UNL     1      -1.220  -2.220   0.300  1.00  0.00     0.009 C 
ATOM     13  C   UNL     1      -2.619   0.457   0.369  1.00  0.00    -0.005 C 
ATOM     14  C   UNL     1      -2.644  -2.089   0.818  1.00  0.00     0.032 C 
ATOM     15  C   UNL     1      -3.346  -0.888   0.234  1.00  0.00    -0.060 C 
ATOM     16  C   UNL     1      -3.300   1.523  -0.537  1.00  0.00     0.020 C 
ATOM     17  C   UNL     1      -4.557  -1.037  -0.328  1.00  0.00     0.047 C 
ATOM     18  C   UNL     1      -4.819   1.508  -0.459  1.00  0.00     0.081 C 
ATOM     19  C   UNL     1      -5.342   0.133  -0.784  1.00  0.00     0.155 C 
ATOM     20  O   UNL     1      -6.423  -0.034  -1.344  1.00  0.00    -0.295 OA
ATOM     21  C   UNL     1       2.157   0.472   1.643  1.00  0.00     0.015 C 
ATOM     22  C   UNL     1      -2.747   0.898   1.845  1.00  0.00     0.016 C 
BRANCH   3  23
ATOM     23  O   UNL     1       3.114  -0.286  -1.942  1.00  0.00    -0.381 OA
ATOM     24  H   UNL     1       3.873  -0.765  -2.317  1.00  0.00     0.212 HD
ENDBRANCH   3  23
BRANCH  10  25
ATOM     25  O   UNL     1      -0.229   2.144   1.240  1.00  0.00    -0.393 OA
ATOM     26  H   UNL     1       0.282   2.970   1.200  1.00  0.00     0.210 HD
ENDBRANCH  10  25
ENDBRANCH   2   3
BRANCH   2  27
ATOM     27  C   UNL     1       5.730  -0.276  -0.131  1.00  0.00     0.234 C 
BRANCH  27  28
ATOM     28  O   UNL     1       6.799   0.584  -0.465  1.00  0.00    -0.388 OA
ATOM     29  H   UNL     1       6.862   1.258   0.234  1.00  0.00     0.211 HD
ENDBRANCH  27  28
ENDBRANCH   2  27
TORSDOF 5
