REMARK SMILES NCCc1ccc(O)c(O)c1
REMARK SMILES IDX 3 1 4 2 9 3 11 4 7 5 6 6 5 7 10 8 8 10 2 12 1 13
REMARK H PARENT 10 9 8 11 1 14 1 15
ROOT
ATOM      1  C   UNL     1       2.163  -0.021  -0.661  1.00  0.00     0.050 C 
ENDROOT
BRANCH   1   2
ATOM      2  C   UNL     1       0.704  -0.160  -0.385  1.00  0.00    -0.043 A 
ATOM      3  C   UNL     1      -1.464   0.846  -0.033  1.00  0.00     0.157 A 
ATOM      4  C   UNL     1      -0.100   0.976  -0.292  1.00  0.00     0.054 A 
ATOM      5  C   UNL     1      -2.025  -0.421   0.134  1.00  0.00     0.157 A 
ATOM      6  C   UNL     1      -1.221  -1.557   0.041  1.00  0.00     0.050 A 
ATOM      7  C   UNL     1       0.143  -1.427  -0.219  1.00  0.00     0.008 A 
BRANCH   3   8
ATOM      8  O   UNL     1      -2.239   1.963   0.055  1.00  0.00    -0.504 OA
ATOM      9  H   UNL     1      -3.154   1.687   0.238  1.00  0.00     0.293 HD
ENDBRANCH   3   8
BRANCH   5  10
ATOM     10  O   UNL     1      -3.356  -0.561   0.387  1.00  0.00    -0.504 OA
ATOM     11  H   UNL     1      -3.564  -1.507   0.472  1.00  0.00     0.293 HD
ENDBRANCH   5  10
ENDBRANCH   1   2
BRANCH   1  12
ATOM     12  C   UNL     1       2.986   0.101   0.629  1.00  0.00     0.082 C 
BRANCH  12  13
ATOM     13  N   UNL     1       4.408   0.262   0.344  1.00  0.00    -0.330 NA
ATOM     14  H   UNL     1       4.547   1.087  -0.239  1.00  0.00     0.118 HD
ATOM     15  H   UNL     1       4.736  -0.528  -0.209  1.00  0.00     0.118 HD
ENDBRANCH  12  13
ENDBRANCH   1  12
TORSDOF 5
