REMARK SMILES OC[C@H]1O[C@@H](O)[C@H](O)[C@@H](O)[C@@H]1O
REMARK SMILES IDX 4 1 11 2 9 3 3 4 7 5 5 6 2 7 1 8 6 10 12 12 8 14 10 16
REMARK H PARENT 1 9 6 11 12 13 8 15 10 17
ROOT
ATOM      1  O   UNL     1      -0.668   1.159   0.257  1.00  0.00    -0.342 OA
ATOM      2  C   UNL     1      -0.373  -1.247   0.230  1.00  0.00     0.177 C 
ATOM      3  C   UNL     1       1.086  -1.071  -0.194  1.00  0.00     0.179 C 
ATOM      4  C   UNL     1      -1.221  -0.062  -0.237  1.00  0.00     0.178 C 
ATOM      5  C   UNL     1       1.608   0.315   0.184  1.00  0.00     0.201 C 
ATOM      6  C   UNL     1       0.639   1.413  -0.253  1.00  0.00     0.279 C 
ENDROOT
BRANCH   4   7
ATOM      7  C   UNL     1      -2.655  -0.158   0.274  1.00  0.00     0.191 C 
BRANCH   7   8
ATOM      8  O   UNL     1      -3.374   0.972  -0.186  1.00  0.00    -0.394 OA
ATOM      9  H   UNL     1      -2.919   1.765   0.144  1.00  0.00     0.210 HD
ENDBRANCH   7   8
ENDBRANCH   4   7
BRANCH   6  10
ATOM     10  O   UNL     1       1.122   2.655   0.257  1.00  0.00    -0.366 OA
ATOM     11  H   UNL     1       1.488   2.503   1.145  1.00  0.00     0.213 HD
ENDBRANCH   6  10
BRANCH   2  12
ATOM     12  O   UNL     1      -0.887  -2.448  -0.339  1.00  0.00    -0.387 OA
ATOM     13  H   UNL     1      -0.851  -2.361  -1.307  1.00  0.00     0.211 HD
ENDBRANCH   2  12
BRANCH   5  14
ATOM     14  O   UNL     1       2.861   0.541  -0.462  1.00  0.00    -0.385 OA
ATOM     15  H   UNL     1       2.716   0.499  -1.423  1.00  0.00     0.211 HD
ENDBRANCH   5  14
BRANCH   3  16
ATOM     16  O   UNL     1       1.862  -2.069   0.470  1.00  0.00    -0.387 OA
ATOM     17  H   UNL     1       1.497  -2.936   0.220  1.00  0.00     0.211 HD
ENDBRANCH   3  16
TORSDOF 6
