MODEL 1
REMARK VINA RESULT:    -8.062      0.000      0.000
REMARK INTER + INTRA:          -9.617
REMARK INTER:                  -9.711
REMARK INTRA:                   0.095
REMARK UNBOUND:                 0.095
REMARK SMILES C[C@]12CCC(=O)C=C1CC[C@@H]1[C@@H]2[C@@H](O)C[C@@]2(C)[C@H]1CC[C@]2(O)C(=O)CO
REMARK SMILES IDX 24 1 23 2 21 3 16 4 20 5 18 6 15 7 19 8 11 9 13 10 12 11
REMARK SMILES IDX 10 12 2 13 9 14 8 15 3 16 7 17 4 18 5 19 6 20 17 21 1 22
REMARK SMILES IDX 22 23 14 25 25 27 26 28
REMARK H PARENT 22 24 14 26 26 29
ROOT
ATOM      1  O   UNL     1       9.761  -2.707   9.976  1.00  0.00    -0.294 OA
ATOM      2  C   UNL     1       8.646  -2.193  10.058  1.00  0.00     0.190 C 
ENDROOT
BRANCH   2   3
ATOM      3  C   UNL     1       8.168  -1.200   9.040  1.00  0.00     0.131 C 
ATOM      4  C   UNL     1       7.896  -1.820   7.641  1.00  0.00     0.009 C 
ATOM      5  C   UNL     1       9.180  -0.065   8.763  1.00  0.00     0.044 C 
ATOM      6  C   UNL     1       7.840  -0.527   6.798  1.00  0.00     0.002 C 
ATOM      7  C   UNL     1       6.543  -2.541   7.472  1.00  0.00     0.042 C 
ATOM      8  C   UNL     1       9.072   0.248   7.256  1.00  0.00     0.008 C 
ATOM      9  C   UNL     1       7.638  -0.781   5.296  1.00  0.00    -0.000 C 
ATOM     10  C   UNL     1       6.181  -2.813   5.995  1.00  0.00     0.119 C 
ATOM     11  C   UNL     1       6.291  -1.546   5.091  1.00  0.00     0.031 C 
ATOM     12  C   UNL     1       7.618   0.550   4.527  1.00  0.00     0.009 C 
ATOM     13  C   UNL     1       5.931  -1.764   3.564  1.00  0.00    -0.005 C 
ATOM     14  C   UNL     1       7.336   0.344   3.047  1.00  0.00     0.032 C 
ATOM     15  C   UNL     1       6.059  -0.427   2.821  1.00  0.00    -0.060 C 
ATOM     16  C   UNL     1       4.466  -2.279   3.483  1.00  0.00     0.020 C 
ATOM     17  C   UNL     1       5.134   0.056   1.975  1.00  0.00     0.047 C 
ATOM     18  C   UNL     1       3.853  -2.159   2.096  1.00  0.00     0.081 C 
ATOM     19  C   UNL     1       3.935  -0.733   1.614  1.00  0.00     0.155 C 
ATOM     20  O   UNL     1       3.077  -0.247   0.881  1.00  0.00    -0.295 OA
ATOM     21  C   UNL     1       9.072  -2.756   7.250  1.00  0.00     0.015 C 
ATOM     22  C   UNL     1       6.858  -2.773   2.849  1.00  0.00     0.016 C 
BRANCH   3  23
ATOM     23  O   UNL     1       6.980  -0.646   9.598  1.00  0.00    -0.381 OA
ATOM     24  H   UNL     1       7.228   0.105  10.165  1.00  0.00     0.212 HD
ENDBRANCH   3  23
BRANCH  10  25
ATOM     25  O   UNL     1       6.988  -3.873   5.501  1.00  0.00    -0.393 OA
ATOM     26  H   UNL     1       6.481  -4.698   5.588  1.00  0.00     0.210 HD
ENDBRANCH  10  25
ENDBRANCH   2   3
BRANCH   2  27
ATOM     27  C   UNL     1       7.683  -2.519  11.180  1.00  0.00     0.234 C 
BRANCH  27  28
ATOM     28  O   UNL     1       7.671  -1.486  12.143  1.00  0.00    -0.388 OA
ATOM     29  H   UNL     1       8.584  -1.367  12.457  1.00  0.00     0.211 HD
ENDBRANCH  27  28
ENDBRANCH   2  27
TORSDOF 5
ENDMDL
MODEL 2
REMARK VINA RESULT:    -7.750      3.580      5.209
REMARK INTER + INTRA:          -9.241
REMARK INTER:                  -9.157
REMARK INTRA:                  -0.084
REMARK UNBOUND:                 0.095
REMARK SMILES C[C@]12CCC(=O)C=C1CC[C@@H]1[C@@H]2[C@@H](O)C[C@@]2(C)[C@H]1CC[C@]2(O)C(=O)CO
REMARK SMILES IDX 24 1 23 2 21 3 16 4 20 5 18 6 15 7 19 8 11 9 13 10 12 11
REMARK SMILES IDX 10 12 2 13 9 14 8 15 3 16 7 17 4 18 5 19 6 20 17 21 1 22
REMARK SMILES IDX 22 23 14 25 25 27 26 28
REMARK H PARENT 22 24 14 26 26 29
ROOT
ATOM      1  O   UNL     1       4.209  -3.255   6.117  1.00  0.00    -0.294 OA
ATOM      2  C   UNL     1       5.142  -2.477   5.918  1.00  0.00     0.190 C 
ENDROOT
BRANCH   2   3
ATOM      3  C   UNL     1       5.322  -1.801   4.592  1.00  0.00     0.131 C 
ATOM      4  C   UNL     1       5.815  -2.750   3.465  1.00  0.00     0.009 C 
ATOM      5  C   UNL     1       6.369  -0.664   4.616  1.00  0.00     0.044 C 
ATOM      6  C   UNL     1       6.269  -1.700   2.428  1.00  0.00     0.002 C 
ATOM      7  C   UNL     1       4.734  -3.623   2.795  1.00  0.00     0.042 C 
ATOM      8  C   UNL     1       7.096  -0.720   3.256  1.00  0.00     0.008 C 
ATOM      9  C   UNL     1       6.892  -2.313   1.164  1.00  0.00    -0.000 C 
ATOM     10  C   UNL     1       5.207  -4.265   1.472  1.00  0.00     0.119 C 
ATOM     11  C   UNL     1       5.833  -3.237   0.479  1.00  0.00     0.031 C 
ATOM     12  C   UNL     1       7.339  -1.205   0.197  1.00  0.00     0.009 C 
ATOM     13  C   UNL     1       6.337  -3.836  -0.898  1.00  0.00    -0.005 C 
ATOM     14  C   UNL     1       7.883  -1.775  -1.104  1.00  0.00     0.032 C 
ATOM     15  C   UNL     1       6.895  -2.702  -1.768  1.00  0.00    -0.060 C 
ATOM     16  C   UNL     1       5.122  -4.501  -1.607  1.00  0.00     0.020 C 
ATOM     17  C   UNL     1       6.585  -2.522  -3.062  1.00  0.00     0.047 C 
ATOM     18  C   UNL     1       5.350  -4.767  -3.087  1.00  0.00     0.081 C 
ATOM     19  C   UNL     1       5.733  -3.491  -3.790  1.00  0.00     0.155 C 
ATOM     20  O   UNL     1       5.420  -3.275  -4.959  1.00  0.00    -0.295 OA
ATOM     21  C   UNL     1       6.979  -3.629   3.999  1.00  0.00     0.015 C 
ATOM     22  C   UNL     1       7.461  -4.886  -0.741  1.00  0.00     0.016 C 
BRANCH   3  23
ATOM     23  O   UNL     1       4.043  -1.254   4.282  1.00  0.00    -0.381 OA
ATOM     24  H   UNL     1       3.563  -1.104   5.115  1.00  0.00     0.212 HD
ENDBRANCH   3  23
BRANCH  10  25
ATOM     25  O   UNL     1       6.110  -5.324   1.758  1.00  0.00    -0.393 OA
ATOM     26  H   UNL     1       6.951  -4.928   2.043  1.00  0.00     0.210 HD
ENDBRANCH  10  25
ENDBRANCH   2   3
BRANCH   2  27
ATOM     27  C   UNL     1       6.165  -2.147   6.983  1.00  0.00     0.234 C 
BRANCH  27  28
ATOM     28  O   UNL     1       6.253  -3.190   7.931  1.00  0.00    -0.388 OA
ATOM     29  H   UNL     1       7.153  -3.556   7.882  1.00  0.00     0.211 HD
ENDBRANCH  27  28
ENDBRANCH   2  27
TORSDOF 5
ENDMDL
MODEL 3
REMARK VINA RESULT:    -7.581      2.955      7.978
REMARK INTER + INTRA:          -9.038
REMARK INTER:                  -8.844
REMARK INTRA:                  -0.194
REMARK UNBOUND:                 0.095
REMARK SMILES C[C@]12CCC(=O)C=C1CC[C@@H]1[C@@H]2[C@@H](O)C[C@@]2(C)[C@H]1CC[C@]2(O)C(=O)CO
REMARK SMILES IDX 24 1 23 2 21 3 16 4 20 5 18 6 15 7 19 8 11 9 13 10 12 11
REMARK SMILES IDX 10 12 2 13 9 14 8 15 3 16 7 17 4 18 5 19 6 20 17 21 1 22
REMARK SMILES IDX 22 23 14 25 25 27 26 28
REMARK H PARENT 22 24 14 26 26 29
ROOT
ATOM      1  O   UNL     1       6.567  -4.826  -2.283  1.00  0.00    -0.294 OA
ATOM      2  C   UNL     1       6.587  -3.692  -1.805  1.00  0.00     0.190 C 
ENDROOT
BRANCH   2   3
ATOM      3  C   UNL     1       5.837  -3.361  -0.549  1.00  0.00     0.131 C 
ATOM      4  C   UNL     1       6.740  -3.257   0.712  1.00  0.00     0.009 C 
ATOM      5  C   UNL     1       4.775  -4.418  -0.169  1.00  0.00     0.044 C 
ATOM      6  C   UNL     1       5.654  -3.328   1.807  1.00  0.00     0.002 C 
ATOM      7  C   UNL     1       7.495  -1.925   0.895  1.00  0.00     0.042 C 
ATOM      8  C   UNL     1       4.787  -4.505   1.372  1.00  0.00     0.008 C 
ATOM      9  C   UNL     1       6.221  -3.312   3.236  1.00  0.00    -0.000 C 
ATOM     10  C   UNL     1       8.076  -1.747   2.314  1.00  0.00     0.119 C 
ATOM     11  C   UNL     1       7.027  -1.989   3.443  1.00  0.00     0.031 C 
ATOM     12  C   UNL     1       5.082  -3.410   4.263  1.00  0.00     0.009 C 
ATOM     13  C   UNL     1       7.565  -1.821   4.924  1.00  0.00    -0.005 C 
ATOM     14  C   UNL     1       5.597  -3.312   5.691  1.00  0.00     0.032 C 
ATOM     15  C   UNL     1       6.413  -2.062   5.909  1.00  0.00    -0.060 C 
ATOM     16  C   UNL     1       8.102  -0.368   5.078  1.00  0.00     0.020 C 
ATOM     17  C   UNL     1       6.129  -1.258   6.947  1.00  0.00     0.047 C 
ATOM     18  C   UNL     1       8.283   0.063   6.526  1.00  0.00     0.081 C 
ATOM     19  C   UNL     1       6.990  -0.101   7.282  1.00  0.00     0.155 C 
ATOM     20  O   UNL     1       6.678   0.650   8.203  1.00  0.00    -0.295 OA
ATOM     21  C   UNL     1       7.725  -4.458   0.746  1.00  0.00     0.015 C 
ATOM     22  C   UNL     1       8.692  -2.813   5.288  1.00  0.00     0.016 C 
BRANCH   3  23
ATOM     23  O   UNL     1       5.191  -2.122  -0.824  1.00  0.00    -0.381 OA
ATOM     24  H   UNL     1       5.833  -1.528  -1.250  1.00  0.00     0.212 HD
ENDBRANCH   3  23
BRANCH  10  25
ATOM     25  O   UNL     1       9.208  -2.592   2.470  1.00  0.00    -0.393 OA
ATOM     26  H   UNL     1       9.825  -2.399   1.744  1.00  0.00     0.210 HD
ENDBRANCH  10  25
ENDBRANCH   2   3
BRANCH   2  27
ATOM     27  C   UNL     1       7.364  -2.558  -2.440  1.00  0.00     0.234 C 
BRANCH  27  28
ATOM     28  O   UNL     1       6.599  -1.934  -3.450  1.00  0.00    -0.388 OA
ATOM     29  H   UNL     1       7.204  -1.705  -4.177  1.00  0.00     0.211 HD
ENDBRANCH  27  28
ENDBRANCH   2  27
TORSDOF 5
ENDMDL
MODEL 4
REMARK VINA RESULT:    -7.556      3.980      5.906
REMARK INTER + INTRA:          -9.007
REMARK INTER:                  -8.831
REMARK INTRA:                  -0.175
REMARK UNBOUND:                 0.095
REMARK SMILES C[C@]12CCC(=O)C=C1CC[C@@H]1[C@@H]2[C@@H](O)C[C@@]2(C)[C@H]1CC[C@]2(O)C(=O)CO
REMARK SMILES IDX 24 1 23 2 21 3 16 4 20 5 18 6 15 7 19 8 11 9 13 10 12 11
REMARK SMILES IDX 10 12 2 13 9 14 8 15 3 16 7 17 4 18 5 19 6 20 17 21 1 22
REMARK SMILES IDX 22 23 14 25 25 27 26 28
REMARK H PARENT 22 24 14 26 26 29
ROOT
ATOM      1  O   UNL     1       6.896  -1.393   5.827  1.00  0.00    -0.294 OA
ATOM      2  C   UNL     1       5.867  -1.876   5.357  1.00  0.00     0.190 C 
ENDROOT
BRANCH   2   3
ATOM      3  C   UNL     1       5.507  -1.688   3.913  1.00  0.00     0.131 C 
ATOM      4  C   UNL     1       5.979  -2.849   2.993  1.00  0.00     0.009 C 
ATOM      5  C   UNL     1       6.132  -0.424   3.281  1.00  0.00     0.044 C 
ATOM      6  C   UNL     1       5.828  -2.161   1.619  1.00  0.00     0.002 C 
ATOM      7  C   UNL     1       5.087  -4.107   2.980  1.00  0.00     0.042 C 
ATOM      8  C   UNL     1       6.491  -0.802   1.828  1.00  0.00     0.008 C 
ATOM      9  C   UNL     1       6.283  -3.035   0.440  1.00  0.00    -0.000 C 
ATOM     10  C   UNL     1       5.398  -5.059   1.805  1.00  0.00     0.119 C 
ATOM     11  C   UNL     1       5.423  -4.341   0.420  1.00  0.00     0.031 C 
ATOM     12  C   UNL     1       6.124  -2.271  -0.884  1.00  0.00     0.009 C 
ATOM     13  C   UNL     1       5.738  -5.267  -0.825  1.00  0.00    -0.005 C 
ATOM     14  C   UNL     1       6.485  -3.135  -2.083  1.00  0.00     0.032 C 
ATOM     15  C   UNL     1       5.697  -4.421  -2.106  1.00  0.00    -0.060 C 
ATOM     16  C   UNL     1       4.649  -6.377  -0.886  1.00  0.00     0.020 C 
ATOM     17  C   UNL     1       5.045  -4.779  -3.224  1.00  0.00     0.047 C 
ATOM     18  C   UNL     1       4.584  -7.093  -2.227  1.00  0.00     0.081 C 
ATOM     19  C   UNL     1       4.379  -6.096  -3.338  1.00  0.00     0.155 C 
ATOM     20  O   UNL     1       3.743  -6.377  -4.351  1.00  0.00    -0.295 OA
ATOM     21  C   UNL     1       7.448  -3.218   3.336  1.00  0.00     0.015 C 
ATOM     22  C   UNL     1       7.131  -5.933  -0.763  1.00  0.00     0.016 C 
BRANCH   3  23
ATOM     23  O   UNL     1       4.087  -1.567   3.902  1.00  0.00    -0.381 OA
ATOM     24  H   UNL     1       3.841  -0.898   3.239  1.00  0.00     0.212 HD
ENDBRANCH   3  23
BRANCH  10  25
ATOM     25  O   UNL     1       6.622  -5.736   2.058  1.00  0.00    -0.393 OA
ATOM     26  H   UNL     1       6.489  -6.677   1.853  1.00  0.00     0.210 HD
ENDBRANCH  10  25
ENDBRANCH   2   3
BRANCH   2  27
ATOM     27  C   UNL     1       4.898  -2.689   6.189  1.00  0.00     0.234 C 
BRANCH  27  28
ATOM     28  O   UNL     1       4.050  -1.841   6.935  1.00  0.00    -0.388 OA
ATOM     29  H   UNL     1       4.033  -2.175   7.849  1.00  0.00     0.211 HD
ENDBRANCH  27  28
ENDBRANCH   2  27
TORSDOF 5
ENDMDL
MODEL 5
REMARK VINA RESULT:    -7.481      3.403      8.136
REMARK INTER + INTRA:          -8.917
REMARK INTER:                  -8.790
REMARK INTRA:                  -0.127
REMARK UNBOUND:                 0.095
REMARK SMILES C[C@]12CCC(=O)C=C1CC[C@@H]1[C@@H]2[C@@H](O)C[C@@]2(C)[C@H]1CC[C@]2(O)C(=O)CO
REMARK SMILES IDX 24 1 23 2 21 3 16 4 20 5 18 6 15 7 19 8 11 9 13 10 12 11
REMARK SMILES IDX 10 12 2 13 9 14 8 15 3 16 7 17 4 18 5 19 6 20 17 21 1 22
REMARK SMILES IDX 22 23 14 25 25 27 26 28
REMARK H PARENT 22 24 14 26 26 29
ROOT
ATOM      1  O   UNL     1       5.738  -5.211  -2.161  1.00  0.00    -0.294 OA
ATOM      2  C   UNL     1       6.321  -4.146  -2.360  1.00  0.00     0.190 C 
ENDROOT
BRANCH   2   3
ATOM      3  C   UNL     1       7.123  -3.482  -1.281  1.00  0.00     0.131 C 
ATOM      4  C   UNL     1       6.296  -3.124  -0.015  1.00  0.00     0.009 C 
ATOM      5  C   UNL     1       7.752  -2.139  -1.717  1.00  0.00     0.044 C 
ATOM      6  C   UNL     1       7.277  -2.140   0.659  1.00  0.00     0.002 C 
ATOM      7  C   UNL     1       6.044  -4.278   0.977  1.00  0.00     0.042 C 
ATOM      8  C   UNL     1       7.691  -1.215  -0.482  1.00  0.00     0.008 C 
ATOM      9  C   UNL     1       6.733  -1.521   1.956  1.00  0.00    -0.000 C 
ATOM     10  C   UNL     1       5.542  -3.794   2.355  1.00  0.00     0.119 C 
ATOM     11  C   UNL     1       6.429  -2.669   2.973  1.00  0.00     0.031 C 
ATOM     12  C   UNL     1       7.755  -0.538   2.549  1.00  0.00     0.009 C 
ATOM     13  C   UNL     1       5.964  -2.131   4.388  1.00  0.00    -0.005 C 
ATOM     14  C   UNL     1       7.286   0.031   3.879  1.00  0.00     0.032 C 
ATOM     15  C   UNL     1       6.949  -1.056   4.868  1.00  0.00    -0.060 C 
ATOM     16  C   UNL     1       5.958  -3.329   5.381  1.00  0.00     0.020 C 
ATOM     17  C   UNL     1       7.480  -1.018   6.102  1.00  0.00     0.047 C 
ATOM     18  C   UNL     1       5.919  -2.909   6.842  1.00  0.00     0.081 C 
ATOM     19  C   UNL     1       7.066  -1.982   7.147  1.00  0.00     0.155 C 
ATOM     20  O   UNL     1       7.607  -1.960   8.250  1.00  0.00    -0.295 OA
ATOM     21  C   UNL     1       4.957  -2.461  -0.440  1.00  0.00     0.015 C 
ATOM     22  C   UNL     1       4.559  -1.486   4.373  1.00  0.00     0.016 C 
BRANCH   3  23
ATOM     23  O   UNL     1       8.161  -4.409  -0.973  1.00  0.00    -0.381 OA
ATOM     24  H   UNL     1       7.775  -5.147  -0.470  1.00  0.00     0.212 HD
ENDBRANCH   3  23
BRANCH  10  25
ATOM     25  O   UNL     1       4.186  -3.381   2.245  1.00  0.00    -0.393 OA
ATOM     26  H   UNL     1       3.750  -3.566   3.094  1.00  0.00     0.210 HD
ENDBRANCH  10  25
ENDBRANCH   2   3
BRANCH   2  27
ATOM     27  C   UNL     1       6.274  -3.433  -3.695  1.00  0.00     0.234 C 
BRANCH  27  28
ATOM     28  O   UNL     1       4.986  -2.906  -3.934  1.00  0.00    -0.388 OA
ATOM     29  H   UNL     1       5.002  -1.967  -3.680  1.00  0.00     0.211 HD
ENDBRANCH  27  28
ENDBRANCH   2  27
TORSDOF 5
ENDMDL
MODEL 6
REMARK VINA RESULT:    -7.275      2.888      7.492
REMARK INTER + INTRA:          -8.669
REMARK INTER:                  -8.481
REMARK INTRA:                  -0.189
REMARK UNBOUND:                 0.095
REMARK SMILES C[C@]12CCC(=O)C=C1CC[C@@H]1[C@@H]2[C@@H](O)C[C@@]2(C)[C@H]1CC[C@]2(O)C(=O)CO
REMARK SMILES IDX 24 1 23 2 21 3 16 4 20 5 18 6 15 7 19 8 11 9 13 10 12 11
REMARK SMILES IDX 10 12 2 13 9 14 8 15 3 16 7 17 4 18 5 19 6 20 17 21 1 22
REMARK SMILES IDX 22 23 14 25 25 27 26 28
REMARK H PARENT 22 24 14 26 26 29
ROOT
ATOM      1  O   UNL     1       6.025  -3.421  -1.777  1.00  0.00    -0.294 OA
ATOM      2  C   UNL     1       6.882  -3.802  -0.980  1.00  0.00     0.190 C 
ENDROOT
BRANCH   2   3
ATOM      3  C   UNL     1       7.614  -2.832  -0.100  1.00  0.00     0.131 C 
ATOM      4  C   UNL     1       6.993  -2.679   1.316  1.00  0.00     0.009 C 
ATOM      5  C   UNL     1       7.643  -1.392  -0.660  1.00  0.00     0.044 C 
ATOM      6  C   UNL     1       7.696  -1.378   1.762  1.00  0.00     0.002 C 
ATOM      7  C   UNL     1       7.359  -3.775   2.337  1.00  0.00     0.042 C 
ATOM      8  C   UNL     1       7.526  -0.454   0.560  1.00  0.00     0.008 C 
ATOM      9  C   UNL     1       7.252  -0.883   3.147  1.00  0.00    -0.000 C 
ATOM     10  C   UNL     1       7.016  -3.388   3.793  1.00  0.00     0.119 C 
ATOM     11  C   UNL     1       7.574  -1.990   4.204  1.00  0.00     0.031 C 
ATOM     12  C   UNL     1       7.976   0.424   3.505  1.00  0.00     0.009 C 
ATOM     13  C   UNL     1       7.254  -1.536   5.688  1.00  0.00    -0.005 C 
ATOM     14  C   UNL     1       7.626   0.900   4.906  1.00  0.00     0.032 C 
ATOM     15  C   UNL     1       7.891  -0.163   5.943  1.00  0.00    -0.060 C 
ATOM     16  C   UNL     1       7.862  -2.592   6.655  1.00  0.00     0.020 C 
ATOM     17  C   UNL     1       8.618   0.140   7.031  1.00  0.00     0.047 C 
ATOM     18  C   UNL     1       7.983  -2.105   8.091  1.00  0.00     0.081 C 
ATOM     19  C   UNL     1       8.782  -0.829   8.140  1.00  0.00     0.155 C 
ATOM     20  O   UNL     1       9.497  -0.548   9.099  1.00  0.00    -0.295 OA
ATOM     21  C   UNL     1       5.451  -2.532   1.194  1.00  0.00     0.015 C 
ATOM     22  C   UNL     1       5.742  -1.399   5.980  1.00  0.00     0.016 C 
BRANCH   3  23
ATOM     23  O   UNL     1       8.945  -3.336  -0.028  1.00  0.00    -0.381 OA
ATOM     24  H   UNL     1       9.100  -3.907  -0.799  1.00  0.00     0.212 HD
ENDBRANCH   3  23
BRANCH  10  25
ATOM     25  O   UNL     1       5.610  -3.460   3.981  1.00  0.00    -0.393 OA
ATOM     26  H   UNL     1       5.198  -3.568   3.107  1.00  0.00     0.210 HD
ENDBRANCH  10  25
ENDBRANCH   2   3
BRANCH   2  27
ATOM     27  C   UNL     1       7.258  -5.261  -0.828  1.00  0.00     0.234 C 
BRANCH  27  28
ATOM     28  O   UNL     1       8.342  -5.587  -1.671  1.00  0.00    -0.388 OA
ATOM     29  H   UNL     1       9.099  -5.811  -1.102  1.00  0.00     0.211 HD
ENDBRANCH  27  28
ENDBRANCH   2  27
TORSDOF 5
ENDMDL
MODEL 7
REMARK VINA RESULT:    -7.154      2.579      4.214
REMARK INTER + INTRA:          -8.523
REMARK INTER:                  -8.406
REMARK INTRA:                  -0.117
REMARK UNBOUND:                 0.095
REMARK SMILES C[C@]12CCC(=O)C=C1CC[C@@H]1[C@@H]2[C@@H](O)C[C@@]2(C)[C@H]1CC[C@]2(O)C(=O)CO
REMARK SMILES IDX 24 1 23 2 21 3 16 4 20 5 18 6 15 7 19 8 11 9 13 10 12 11
REMARK SMILES IDX 10 12 2 13 9 14 8 15 3 16 7 17 4 18 5 19 6 20 17 21 1 22
REMARK SMILES IDX 22 23 14 25 25 27 26 28
REMARK H PARENT 22 24 14 26 26 29
ROOT
ATOM      1  O   UNL     1       7.304   1.065   7.088  1.00  0.00    -0.294 OA
ATOM      2  C   UNL     1       7.154  -0.077   7.520  1.00  0.00     0.190 C 
ENDROOT
BRANCH   2   3
ATOM      3  C   UNL     1       7.442  -1.277   6.667  1.00  0.00     0.131 C 
ATOM      4  C   UNL     1       6.447  -1.461   5.487  1.00  0.00     0.009 C 
ATOM      5  C   UNL     1       7.368  -2.614   7.438  1.00  0.00     0.044 C 
ATOM      6  C   UNL     1       6.766  -2.925   5.112  1.00  0.00     0.002 C 
ATOM      7  C   UNL     1       6.711  -0.596   4.238  1.00  0.00     0.042 C 
ATOM      8  C   UNL     1       6.766  -3.644   6.458  1.00  0.00     0.008 C 
ATOM      9  C   UNL     1       5.888  -3.474   3.977  1.00  0.00    -0.000 C 
ATOM     10  C   UNL     1       5.929  -1.071   2.994  1.00  0.00     0.119 C 
ATOM     11  C   UNL     1       6.102  -2.594   2.703  1.00  0.00     0.031 C 
ATOM     12  C   UNL     1       6.250  -4.939   3.683  1.00  0.00     0.009 C 
ATOM     13  C   UNL     1       5.323  -3.142   1.438  1.00  0.00    -0.005 C 
ATOM     14  C   UNL     1       5.459  -5.492   2.507  1.00  0.00     0.032 C 
ATOM     15  C   UNL     1       5.617  -4.639   1.273  1.00  0.00    -0.060 C 
ATOM     16  C   UNL     1       5.823  -2.360   0.189  1.00  0.00     0.020 C 
ATOM     17  C   UNL     1       5.962  -5.215   0.109  1.00  0.00     0.047 C 
ATOM     18  C   UNL     1       5.468  -3.028  -1.131  1.00  0.00     0.081 C 
ATOM     19  C   UNL     1       5.989  -4.442  -1.153  1.00  0.00     0.155 C 
ATOM     20  O   UNL     1       6.360  -4.979  -2.194  1.00  0.00    -0.295 OA
ATOM     21  C   UNL     1       4.993  -1.262   5.998  1.00  0.00     0.015 C 
ATOM     22  C   UNL     1       3.788  -2.988   1.543  1.00  0.00     0.016 C 
BRANCH   3  23
ATOM     23  O   UNL     1       8.771  -1.080   6.194  1.00  0.00    -0.381 OA
ATOM     24  H   UNL     1       8.993  -1.809   5.589  1.00  0.00     0.212 HD
ENDBRANCH   3  23
BRANCH  10  25
ATOM     25  O   UNL     1       4.558  -0.725   3.139  1.00  0.00    -0.393 OA
ATOM     26  H   UNL     1       4.482   0.238   3.030  1.00  0.00     0.210 HD
ENDBRANCH  10  25
ENDBRANCH   2   3
BRANCH   2  27
ATOM     27  C   UNL     1       6.674  -0.356   8.928  1.00  0.00     0.234 C 
BRANCH  27  28
ATOM     28  O   UNL     1       5.709   0.596   9.323  1.00  0.00    -0.388 OA
ATOM     29  H   UNL     1       5.975   1.455   8.951  1.00  0.00     0.211 HD
ENDBRANCH  27  28
ENDBRANCH   2  27
TORSDOF 5
ENDMDL
MODEL 8
REMARK VINA RESULT:    -6.982      3.491      5.322
REMARK INTER + INTRA:          -8.316
REMARK INTER:                  -8.296
REMARK INTRA:                  -0.020
REMARK UNBOUND:                 0.095
REMARK SMILES C[C@]12CCC(=O)C=C1CC[C@@H]1[C@@H]2[C@@H](O)C[C@@]2(C)[C@H]1CC[C@]2(O)C(=O)CO
REMARK SMILES IDX 24 1 23 2 21 3 16 4 20 5 18 6 15 7 19 8 11 9 13 10 12 11
REMARK SMILES IDX 10 12 2 13 9 14 8 15 3 16 7 17 4 18 5 19 6 20 17 21 1 22
REMARK SMILES IDX 22 23 14 25 25 27 26 28
REMARK H PARENT 22 24 14 26 26 29
ROOT
ATOM      1  O   UNL     1       7.746   1.175   5.438  1.00  0.00    -0.294 OA
ATOM      2  C   UNL     1       7.915   0.039   5.878  1.00  0.00     0.190 C 
ENDROOT
BRANCH   2   3
ATOM      3  C   UNL     1       8.375  -1.080   4.992  1.00  0.00     0.131 C 
ATOM      4  C   UNL     1       7.493  -1.282   3.729  1.00  0.00     0.009 C 
ATOM      5  C   UNL     1       8.364  -2.461   5.687  1.00  0.00     0.044 C 
ATOM      6  C   UNL     1       7.971  -2.688   3.307  1.00  0.00     0.002 C 
ATOM      7  C   UNL     1       7.772  -0.327   2.550  1.00  0.00     0.042 C 
ATOM      8  C   UNL     1       7.934  -3.480   4.611  1.00  0.00     0.008 C 
ATOM      9  C   UNL     1       7.235  -3.246   2.079  1.00  0.00    -0.000 C 
ATOM     10  C   UNL     1       7.132  -0.796   1.225  1.00  0.00     0.119 C 
ATOM     11  C   UNL     1       7.465  -2.279   0.872  1.00  0.00     0.031 C 
ATOM     12  C   UNL     1       7.750  -4.654   1.741  1.00  0.00     0.009 C 
ATOM     13  C   UNL     1       6.836  -2.818  -0.478  1.00  0.00    -0.005 C 
ATOM     14  C   UNL     1       7.104  -5.205   0.479  1.00  0.00     0.032 C 
ATOM     15  C   UNL     1       7.277  -4.272  -0.694  1.00  0.00    -0.060 C 
ATOM     16  C   UNL     1       7.357  -1.925  -1.641  1.00  0.00     0.020 C 
ATOM     17  C   UNL     1       7.760  -4.749  -1.854  1.00  0.00     0.047 C 
ATOM     18  C   UNL     1       7.165  -2.545  -3.017  1.00  0.00     0.081 C 
ATOM     19  C   UNL     1       7.812  -3.904  -3.069  1.00  0.00     0.155 C 
ATOM     20  O   UNL     1       8.308  -4.347  -4.103  1.00  0.00    -0.295 OA
ATOM     21  C   UNL     1       5.993  -1.239   4.130  1.00  0.00     0.015 C 
ATOM     22  C   UNL     1       5.290  -2.804  -0.489  1.00  0.00     0.016 C 
BRANCH   3  23
ATOM     23  O   UNL     1       9.713  -0.742   4.638  1.00  0.00    -0.381 OA
ATOM     24  H   UNL     1      10.046  -1.413   4.017  1.00  0.00     0.212 HD
ENDBRANCH   3  23
BRANCH  10  25
ATOM     25  O   UNL     1       5.729  -0.578   1.276  1.00  0.00    -0.393 OA
ATOM     26  H   UNL     1       5.455  -0.623   2.207  1.00  0.00     0.210 HD
ENDBRANCH  10  25
ENDBRANCH   2   3
BRANCH   2  27
ATOM     27  C   UNL     1       7.676  -0.311   7.332  1.00  0.00     0.234 C 
BRANCH  27  28
ATOM     28  O   UNL     1       6.900   0.685   7.964  1.00  0.00    -0.388 OA
ATOM     29  H   UNL     1       5.996   0.336   8.057  1.00  0.00     0.211 HD
ENDBRANCH  27  28
ENDBRANCH   2  27
TORSDOF 5
ENDMDL
MODEL 9
REMARK VINA RESULT:    -6.923      1.615      7.317
REMARK INTER + INTRA:          -8.245
REMARK INTER:                  -8.218
REMARK INTRA:                  -0.027
REMARK UNBOUND:                 0.095
REMARK SMILES C[C@]12CCC(=O)C=C1CC[C@@H]1[C@@H]2[C@@H](O)C[C@@]2(C)[C@H]1CC[C@]2(O)C(=O)CO
REMARK SMILES IDX 24 1 23 2 21 3 16 4 20 5 18 6 15 7 19 8 11 9 13 10 12 11
REMARK SMILES IDX 10 12 2 13 9 14 8 15 3 16 7 17 4 18 5 19 6 20 17 21 1 22
REMARK SMILES IDX 22 23 14 25 25 27 26 28
REMARK H PARENT 22 24 14 26 26 29
ROOT
ATOM      1  O   UNL     1       4.036  -0.349   3.298  1.00  0.00    -0.294 OA
ATOM      2  C   UNL     1       5.145  -0.748   2.943  1.00  0.00     0.190 C 
ENDROOT
BRANCH   2   3
ATOM      3  C   UNL     1       5.883  -1.796   3.722  1.00  0.00     0.131 C 
ATOM      4  C   UNL     1       6.619  -1.245   4.974  1.00  0.00     0.009 C 
ATOM      5  C   UNL     1       6.991  -2.502   2.909  1.00  0.00     0.044 C 
ATOM      6  C   UNL     1       7.554  -2.438   5.265  1.00  0.00     0.002 C 
ATOM      7  C   UNL     1       5.749  -1.024   6.229  1.00  0.00     0.042 C 
ATOM      8  C   UNL     1       8.148  -2.764   3.898  1.00  0.00     0.008 C 
ATOM      9  C   UNL     1       8.505  -2.201   6.449  1.00  0.00    -0.000 C 
ATOM     10  C   UNL     1       6.579  -0.825   7.516  1.00  0.00     0.119 C 
ATOM     11  C   UNL     1       7.653  -1.935   7.733  1.00  0.00     0.031 C 
ATOM     12  C   UNL     1       9.416  -3.421   6.656  1.00  0.00     0.009 C 
ATOM     13  C   UNL     1       8.537  -1.784   9.038  1.00  0.00    -0.005 C 
ATOM     14  C   UNL     1      10.313  -3.258   7.872  1.00  0.00     0.032 C 
ATOM     15  C   UNL     1       9.519  -2.961   9.121  1.00  0.00    -0.060 C 
ATOM     16  C   UNL     1       7.585  -1.799  10.269  1.00  0.00     0.020 C 
ATOM     17  C   UNL     1       9.727  -3.693  10.228  1.00  0.00     0.047 C 
ATOM     18  C   UNL     1       8.298  -2.059  11.587  1.00  0.00     0.081 C 
ATOM     19  C   UNL     1       9.076  -3.346  11.512  1.00  0.00     0.155 C 
ATOM     20  O   UNL     1       9.240  -4.064  12.496  1.00  0.00    -0.295 OA
ATOM     21  C   UNL     1       7.382   0.055   4.598  1.00  0.00     0.015 C 
ATOM     22  C   UNL     1       9.377  -0.487   9.070  1.00  0.00     0.016 C 
BRANCH   3  23
ATOM     23  O   UNL     1       4.888  -2.749   4.087  1.00  0.00    -0.381 OA
ATOM     24  H   UNL     1       4.305  -2.893   3.322  1.00  0.00     0.212 HD
ENDBRANCH   3  23
BRANCH  10  25
ATOM     25  O   UNL     1       7.167   0.469   7.502  1.00  0.00    -0.393 OA
ATOM     26  H   UNL     1       6.451   1.121   7.584  1.00  0.00     0.210 HD
ENDBRANCH  10  25
ENDBRANCH   2   3
BRANCH   2  27
ATOM     27  C   UNL     1       5.841  -0.217   1.708  1.00  0.00     0.234 C 
BRANCH  27  28
ATOM     28  O   UNL     1       5.498   1.134   1.484  1.00  0.00    -0.388 OA
ATOM     29  H   UNL     1       5.000   1.442   2.261  1.00  0.00     0.211 HD
ENDBRANCH  27  28
ENDBRANCH   2  27
TORSDOF 5
ENDMDL
