MODEL 1
REMARK VINA RESULT:    -6.576      0.000      0.000
REMARK INTER + INTRA:          -7.938
REMARK INTER:                  -7.922
REMARK INTRA:                  -0.016
REMARK UNBOUND:                -0.016
REMARK SMILES C[C@]12CCC(=O)C=C1CC[C@@H]1[C@@H]2[C@@H](O)C[C@@]2(C)[C@H]1CC[C@]2(O)C(=O)CO
REMARK SMILES IDX 24 1 23 2 21 3 16 4 20 5 18 6 15 7 19 8 11 9 13 10 12 11
REMARK SMILES IDX 10 12 2 13 9 14 8 15 3 16 7 17 4 18 5 19 6 20 17 21 1 22
REMARK SMILES IDX 22 23 14 25 25 27 26 28
REMARK H PARENT 22 24 14 26 26 29
ROOT
ATOM      1  O   UNL     1      18.645  -5.021   3.893  1.00  0.00    -0.294 OA
ATOM      2  C   UNL     1      17.499  -4.589   4.013  1.00  0.00     0.190 C 
ENDROOT
BRANCH   2   3
ATOM      3  C   UNL     1      16.408  -5.428   4.609  1.00  0.00     0.131 C 
ATOM      4  C   UNL     1      15.753  -4.800   5.871  1.00  0.00     0.009 C 
ATOM      5  C   UNL     1      16.887  -6.819   5.081  1.00  0.00     0.044 C 
ATOM      6  C   UNL     1      15.025  -6.045   6.424  1.00  0.00     0.002 C 
ATOM      7  C   UNL     1      14.685  -3.718   5.612  1.00  0.00     0.042 C 
ATOM      8  C   UNL     1      16.092  -7.134   6.366  1.00  0.00     0.008 C 
ATOM      9  C   UNL     1      14.296  -5.791   7.753  1.00  0.00    -0.000 C 
ATOM     10  C   UNL     1      13.832  -3.397   6.859  1.00  0.00     0.119 C 
ATOM     11  C   UNL     1      13.230  -4.668   7.536  1.00  0.00     0.031 C 
ATOM     12  C   UNL     1      13.621  -7.080   8.247  1.00  0.00     0.009 C 
ATOM     13  C   UNL     1      12.344  -4.403   8.821  1.00  0.00    -0.005 C 
ATOM     14  C   UNL     1      12.818  -6.847   9.518  1.00  0.00     0.032 C 
ATOM     15  C   UNL     1      11.806  -5.741   9.348  1.00  0.00    -0.060 C 
ATOM     16  C   UNL     1      11.161  -3.481   8.408  1.00  0.00     0.020 C 
ATOM     17  C   UNL     1      10.526  -5.957   9.691  1.00  0.00     0.047 C 
ATOM     18  C   UNL     1      10.024  -3.459   9.418  1.00  0.00     0.081 C 
ATOM     19  C   UNL     1       9.531  -4.859   9.675  1.00  0.00     0.155 C 
ATOM     20  O   UNL     1       8.354  -5.094   9.941  1.00  0.00    -0.295 OA
ATOM     21  C   UNL     1      16.861  -4.266   6.819  1.00  0.00     0.015 C 
ATOM     22  C   UNL     1      13.119  -3.736   9.980  1.00  0.00     0.016 C 
BRANCH   3  23
ATOM     23  O   UNL     1      15.456  -5.588   3.561  1.00  0.00    -0.381 OA
ATOM     24  H   UNL     1      15.451  -6.523   3.290  1.00  0.00     0.212 HD
ENDBRANCH   3  23
BRANCH  10  25
ATOM     25  O   UNL     1      14.606  -2.639   7.778  1.00  0.00    -0.393 OA
ATOM     26  H   UNL     1      14.375  -1.703   7.659  1.00  0.00     0.210 HD
ENDBRANCH  10  25
ENDBRANCH   2   3
BRANCH   2  27
ATOM     27  C   UNL     1      17.108  -3.193   3.575  1.00  0.00     0.234 C 
BRANCH  27  28
ATOM     28  O   UNL     1      16.232  -3.245   2.469  1.00  0.00    -0.388 OA
ATOM     29  H   UNL     1      15.349  -3.477   2.805  1.00  0.00     0.211 HD
ENDBRANCH  27  28
ENDBRANCH   2  27
TORSDOF 5
ENDMDL
MODEL 2
REMARK VINA RESULT:    -6.260      1.898      7.638
REMARK INTER + INTRA:          -7.556
REMARK INTER:                  -7.554
REMARK INTRA:                  -0.003
REMARK UNBOUND:                -0.016
REMARK SMILES C[C@]12CCC(=O)C=C1CC[C@@H]1[C@@H]2[C@@H](O)C[C@@]2(C)[C@H]1CC[C@]2(O)C(=O)CO
REMARK SMILES IDX 24 1 23 2 21 3 16 4 20 5 18 6 15 7 19 8 11 9 13 10 12 11
REMARK SMILES IDX 10 12 2 13 9 14 8 15 3 16 7 17 4 18 5 19 6 20 17 21 1 22
REMARK SMILES IDX 22 23 14 25 25 27 26 28
REMARK H PARENT 22 24 14 26 26 29
ROOT
ATOM      1  O   UNL     1       7.769  -7.826   8.999  1.00  0.00    -0.294 OA
ATOM      2  C   UNL     1       7.920  -6.669   9.388  1.00  0.00     0.190 C 
ENDROOT
BRANCH   2   3
ATOM      3  C   UNL     1       8.579  -5.635   8.524  1.00  0.00     0.131 C 
ATOM      4  C   UNL     1      10.131  -5.714   8.526  1.00  0.00     0.009 C 
ATOM      5  C   UNL     1       8.272  -4.183   8.956  1.00  0.00     0.044 C 
ATOM      6  C   UNL     1      10.456  -4.332   7.918  1.00  0.00     0.002 C 
ATOM      7  C   UNL     1      10.755  -6.782   7.604  1.00  0.00     0.042 C 
ATOM      8  C   UNL     1       9.566  -3.379   8.710  1.00  0.00     0.008 C 
ATOM      9  C   UNL     1      11.962  -4.039   7.827  1.00  0.00    -0.000 C 
ATOM     10  C   UNL     1      12.269  -6.578   7.377  1.00  0.00     0.119 C 
ATOM     11  C   UNL     1      12.633  -5.129   6.929  1.00  0.00     0.031 C 
ATOM     12  C   UNL     1      12.199  -2.640   7.237  1.00  0.00     0.009 C 
ATOM     13  C   UNL     1      14.174  -4.858   6.680  1.00  0.00    -0.005 C 
ATOM     14  C   UNL     1      13.680  -2.347   7.053  1.00  0.00     0.032 C 
ATOM     15  C   UNL     1      14.362  -3.405   6.221  1.00  0.00    -0.060 C 
ATOM     16  C   UNL     1      14.661  -5.833   5.570  1.00  0.00     0.020 C 
ATOM     17  C   UNL     1      15.114  -3.038   5.170  1.00  0.00     0.047 C 
ATOM     18  C   UNL     1      15.991  -5.435   4.950  1.00  0.00     0.081 C 
ATOM     19  C   UNL     1      15.914  -4.029   4.414  1.00  0.00     0.155 C 
ATOM     20  O   UNL     1      16.550  -3.677   3.423  1.00  0.00    -0.295 OA
ATOM     21  C   UNL     1      10.641  -5.878   9.983  1.00  0.00     0.015 C 
ATOM     22  C   UNL     1      15.048  -5.055   7.940  1.00  0.00     0.016 C 
BRANCH   3  23
ATOM     23  O   UNL     1       8.053  -5.859   7.219  1.00  0.00    -0.381 OA
ATOM     24  H   UNL     1       7.265  -5.300   7.105  1.00  0.00     0.212 HD
ENDBRANCH   3  23
BRANCH  10  25
ATOM     25  O   UNL     1      12.976  -6.950   8.552  1.00  0.00    -0.393 OA
ATOM     26  H   UNL     1      13.060  -6.159   9.110  1.00  0.00     0.210 HD
ENDBRANCH  10  25
ENDBRANCH   2   3
BRANCH   2  27
ATOM     27  C   UNL     1       7.456  -6.205  10.753  1.00  0.00     0.234 C 
BRANCH  27  28
ATOM     28  O   UNL     1       6.504  -7.100  11.287  1.00  0.00    -0.388 OA
ATOM     29  H   UNL     1       5.981  -7.449  10.544  1.00  0.00     0.211 HD
ENDBRANCH  27  28
ENDBRANCH   2  27
TORSDOF 5
ENDMDL
MODEL 3
REMARK VINA RESULT:    -6.040      1.713      2.061
REMARK INTER + INTRA:          -7.292
REMARK INTER:                  -7.584
REMARK INTRA:                   0.293
REMARK UNBOUND:                -0.016
REMARK SMILES C[C@]12CCC(=O)C=C1CC[C@@H]1[C@@H]2[C@@H](O)C[C@@]2(C)[C@H]1CC[C@]2(O)C(=O)CO
REMARK SMILES IDX 24 1 23 2 21 3 16 4 20 5 18 6 15 7 19 8 11 9 13 10 12 11
REMARK SMILES IDX 10 12 2 13 9 14 8 15 3 16 7 17 4 18 5 19 6 20 17 21 1 22
REMARK SMILES IDX 22 23 14 25 25 27 26 28
REMARK H PARENT 22 24 14 26 26 29
ROOT
ATOM      1  O   UNL     1      17.160  -3.690   6.316  1.00  0.00    -0.294 OA
ATOM      2  C   UNL     1      17.062  -4.725   5.657  1.00  0.00     0.190 C 
ENDROOT
BRANCH   2   3
ATOM      3  C   UNL     1      15.767  -5.477   5.575  1.00  0.00     0.131 C 
ATOM      4  C   UNL     1      14.738  -5.074   6.667  1.00  0.00     0.009 C 
ATOM      5  C   UNL     1      15.929  -7.004   5.749  1.00  0.00     0.044 C 
ATOM      6  C   UNL     1      13.765  -6.267   6.550  1.00  0.00     0.002 C 
ATOM      7  C   UNL     1      13.929  -3.790   6.394  1.00  0.00     0.042 C 
ATOM      8  C   UNL     1      14.690  -7.480   6.538  1.00  0.00     0.008 C 
ATOM      9  C   UNL     1      12.613  -6.224   7.567  1.00  0.00    -0.000 C 
ATOM     10  C   UNL     1      12.698  -3.640   7.315  1.00  0.00     0.119 C 
ATOM     11  C   UNL     1      11.793  -4.911   7.343  1.00  0.00     0.031 C 
ATOM     12  C   UNL     1      11.707  -7.454   7.402  1.00  0.00     0.009 C 
ATOM     13  C   UNL     1      10.514  -4.818   8.271  1.00  0.00    -0.005 C 
ATOM     14  C   UNL     1      10.508  -7.403   8.336  1.00  0.00     0.032 C 
ATOM     15  C   UNL     1       9.719  -6.128   8.168  1.00  0.00    -0.060 C 
ATOM     16  C   UNL     1       9.644  -3.628   7.774  1.00  0.00     0.020 C 
ATOM     17  C   UNL     1       8.391  -6.190   7.979  1.00  0.00     0.047 C 
ATOM     18  C   UNL     1       8.217  -3.655   8.300  1.00  0.00     0.081 C 
ATOM     19  C   UNL     1       7.560  -4.965   7.952  1.00  0.00     0.155 C 
ATOM     20  O   UNL     1       6.355  -5.046   7.723  1.00  0.00    -0.295 OA
ATOM     21  C   UNL     1      15.448  -4.995   8.046  1.00  0.00     0.015 C 
ATOM     22  C   UNL     1      10.848  -4.605   9.765  1.00  0.00     0.016 C 
BRANCH   3  23
ATOM     23  O   UNL     1      15.267  -5.203   4.269  1.00  0.00    -0.381 OA
ATOM     24  H   UNL     1      15.324  -6.018   3.741  1.00  0.00     0.212 HD
ENDBRANCH   3  23
BRANCH  10  25
ATOM     25  O   UNL     1      13.128  -3.282   8.621  1.00  0.00    -0.393 OA
ATOM     26  H   UNL     1      12.548  -2.569   8.938  1.00  0.00     0.210 HD
ENDBRANCH  10  25
ENDBRANCH   2   3
BRANCH   2  27
ATOM     27  C   UNL     1      18.227  -5.309   4.887  1.00  0.00     0.234 C 
BRANCH  27  28
ATOM     28  O   UNL     1      17.988  -5.246   3.497  1.00  0.00    -0.388 OA
ATOM     29  H   UNL     1      17.681  -6.125   3.212  1.00  0.00     0.211 HD
ENDBRANCH  27  28
ENDBRANCH   2  27
TORSDOF 5
ENDMDL
MODEL 4
REMARK VINA RESULT:    -5.866      2.307      6.975
REMARK INTER + INTRA:          -7.082
REMARK INTER:                  -7.024
REMARK INTRA:                  -0.058
REMARK UNBOUND:                -0.016
REMARK SMILES C[C@]12CCC(=O)C=C1CC[C@@H]1[C@@H]2[C@@H](O)C[C@@]2(C)[C@H]1CC[C@]2(O)C(=O)CO
REMARK SMILES IDX 24 1 23 2 21 3 16 4 20 5 18 6 15 7 19 8 11 9 13 10 12 11
REMARK SMILES IDX 10 12 2 13 9 14 8 15 3 16 7 17 4 18 5 19 6 20 17 21 1 22
REMARK SMILES IDX 22 23 14 25 25 27 26 28
REMARK H PARENT 22 24 14 26 26 29
ROOT
ATOM      1  O   UNL     1      10.947  -2.967   7.235  1.00  0.00    -0.294 OA
ATOM      2  C   UNL     1      11.936  -2.254   7.071  1.00  0.00     0.190 C 
ENDROOT
BRANCH   2   3
ATOM      3  C   UNL     1      13.268  -2.621   7.653  1.00  0.00     0.131 C 
ATOM      4  C   UNL     1      14.037  -3.693   6.831  1.00  0.00     0.009 C 
ATOM      5  C   UNL     1      13.176  -3.225   9.072  1.00  0.00     0.044 C 
ATOM      6  C   UNL     1      15.090  -4.110   7.880  1.00  0.00     0.002 C 
ATOM      7  C   UNL     1      14.797  -3.179   5.592  1.00  0.00     0.042 C 
ATOM      8  C   UNL     1      14.266  -4.315   9.148  1.00  0.00     0.008 C 
ATOM      9  C   UNL     1      16.016  -5.242   7.406  1.00  0.00    -0.000 C 
ATOM     10  C   UNL     1      15.813  -4.201   5.035  1.00  0.00     0.119 C 
ATOM     11  C   UNL     1      16.776  -4.766   6.125  1.00  0.00     0.031 C 
ATOM     12  C   UNL     1      17.015  -5.613   8.513  1.00  0.00     0.009 C 
ATOM     13  C   UNL     1      17.842  -5.821   5.614  1.00  0.00    -0.005 C 
ATOM     14  C   UNL     1      18.004  -6.672   8.050  1.00  0.00     0.032 C 
ATOM     15  C   UNL     1      18.725  -6.256   6.792  1.00  0.00    -0.060 C 
ATOM     16  C   UNL     1      18.712  -5.135   4.522  1.00  0.00     0.020 C 
ATOM     17  C   UNL     1      20.066  -6.318   6.745  1.00  0.00     0.047 C 
ATOM     18  C   UNL     1      20.008  -5.874   4.223  1.00  0.00     0.081 C 
ATOM     19  C   UNL     1      20.805  -6.057   5.489  1.00  0.00     0.155 C 
ATOM     20  O   UNL     1      22.033  -6.067   5.486  1.00  0.00    -0.295 OA
ATOM     21  C   UNL     1      13.068  -4.844   6.444  1.00  0.00     0.015 C 
ATOM     22  C   UNL     1      17.210  -7.101   5.022  1.00  0.00     0.016 C 
BRANCH   3  23
ATOM     23  O   UNL     1      13.994  -1.397   7.708  1.00  0.00    -0.381 OA
ATOM     24  H   UNL     1      14.668  -1.470   8.406  1.00  0.00     0.212 HD
ENDBRANCH   3  23
BRANCH  10  25
ATOM     25  O   UNL     1      15.115  -5.245   4.370  1.00  0.00    -0.393 OA
ATOM     26  H   UNL     1      14.283  -4.875   4.029  1.00  0.00     0.210 HD
ENDBRANCH  10  25
ENDBRANCH   2   3
BRANCH   2  27
ATOM     27  C   UNL     1      11.883  -0.965   6.277  1.00  0.00     0.234 C 
BRANCH  27  28
ATOM     28  O   UNL     1      11.519   0.117   7.108  1.00  0.00    -0.388 OA
ATOM     29  H   UNL     1      10.659  -0.097   7.508  1.00  0.00     0.211 HD
ENDBRANCH  27  28
ENDBRANCH   2  27
TORSDOF 5
ENDMDL
MODEL 5
REMARK VINA RESULT:    -5.826     18.738     21.782
REMARK INTER + INTRA:          -7.034
REMARK INTER:                  -7.079
REMARK INTRA:                   0.045
REMARK UNBOUND:                -0.016
REMARK SMILES C[C@]12CCC(=O)C=C1CC[C@@H]1[C@@H]2[C@@H](O)C[C@@]2(C)[C@H]1CC[C@]2(O)C(=O)CO
REMARK SMILES IDX 24 1 23 2 21 3 16 4 20 5 18 6 15 7 19 8 11 9 13 10 12 11
REMARK SMILES IDX 10 12 2 13 9 14 8 15 3 16 7 17 4 18 5 19 6 20 17 21 1 22
REMARK SMILES IDX 22 23 14 25 25 27 26 28
REMARK H PARENT 22 24 14 26 26 29
ROOT
ATOM      1  O   UNL     1      23.981  14.419  -3.652  1.00  0.00    -0.294 OA
ATOM      2  C   UNL     1      23.380  13.427  -3.242  1.00  0.00     0.190 C 
ENDROOT
BRANCH   2   3
ATOM      3  C   UNL     1      23.268  12.184  -4.074  1.00  0.00     0.131 C 
ATOM      4  C   UNL     1      24.417  11.165  -3.837  1.00  0.00     0.009 C 
ATOM      5  C   UNL     1      23.308  12.455  -5.595  1.00  0.00     0.044 C 
ATOM      6  C   UNL     1      24.225  10.272  -5.082  1.00  0.00     0.002 C 
ATOM      7  C   UNL     1      24.275  10.263  -2.595  1.00  0.00     0.042 C 
ATOM      8  C   UNL     1      24.085  11.277  -6.221  1.00  0.00     0.008 C 
ATOM      9  C   UNL     1      25.271   9.153  -5.204  1.00  0.00    -0.000 C 
ATOM     10  C   UNL     1      25.237   9.054  -2.609  1.00  0.00     0.119 C 
ATOM     11  C   UNL     1      25.181   8.240  -3.939  1.00  0.00     0.031 C 
ATOM     12  C   UNL     1      25.026   8.329  -6.477  1.00  0.00     0.009 C 
ATOM     13  C   UNL     1      26.147   6.987  -4.013  1.00  0.00    -0.005 C 
ATOM     14  C   UNL     1      25.992   7.159  -6.588  1.00  0.00     0.032 C 
ATOM     15  C   UNL     1      25.953   6.280  -5.362  1.00  0.00    -0.060 C 
ATOM     16  C   UNL     1      25.775   6.022  -2.850  1.00  0.00     0.020 C 
ATOM     17  C   UNL     1      25.794   4.954  -5.502  1.00  0.00     0.047 C 
ATOM     18  C   UNL     1      26.334   4.618  -3.021  1.00  0.00     0.081 C 
ATOM     19  C   UNL     1      25.894   4.041  -4.341  1.00  0.00     0.155 C 
ATOM     20  O   UNL     1      25.690   2.838  -4.487  1.00  0.00    -0.295 OA
ATOM     21  C   UNL     1      25.779  11.912  -3.823  1.00  0.00     0.015 C 
ATOM     22  C   UNL     1      27.644   7.353  -3.901  1.00  0.00     0.016 C 
BRANCH   3  23
ATOM     23  O   UNL     1      22.004  11.625  -3.729  1.00  0.00    -0.381 OA
ATOM     24  H   UNL     1      21.928  10.752  -4.152  1.00  0.00     0.212 HD
ENDBRANCH   3  23
BRANCH  10  25
ATOM     25  O   UNL     1      26.557   9.500  -2.331  1.00  0.00    -0.393 OA
ATOM     26  H   UNL     1      27.074   9.428  -3.151  1.00  0.00     0.210 HD
ENDBRANCH  10  25
ENDBRANCH   2   3
BRANCH   2  27
ATOM     27  C   UNL     1      22.715  13.385  -1.882  1.00  0.00     0.234 C 
BRANCH  27  28
ATOM     28  O   UNL     1      22.333  14.682  -1.474  1.00  0.00    -0.388 OA
ATOM     29  H   UNL     1      21.676  15.008  -2.113  1.00  0.00     0.211 HD
ENDBRANCH  27  28
ENDBRANCH   2  27
TORSDOF 5
ENDMDL
MODEL 6
REMARK VINA RESULT:    -5.809      1.814      7.078
REMARK INTER + INTRA:          -7.014
REMARK INTER:                  -6.941
REMARK INTRA:                  -0.073
REMARK UNBOUND:                -0.016
REMARK SMILES C[C@]12CCC(=O)C=C1CC[C@@H]1[C@@H]2[C@@H](O)C[C@@]2(C)[C@H]1CC[C@]2(O)C(=O)CO
REMARK SMILES IDX 24 1 23 2 21 3 16 4 20 5 18 6 15 7 19 8 11 9 13 10 12 11
REMARK SMILES IDX 10 12 2 13 9 14 8 15 3 16 7 17 4 18 5 19 6 20 17 21 1 22
REMARK SMILES IDX 22 23 14 25 25 27 26 28
REMARK H PARENT 22 24 14 26 26 29
ROOT
ATOM      1  O   UNL     1       9.119  -3.296   7.749  1.00  0.00    -0.294 OA
ATOM      2  C   UNL     1       9.558  -3.690   8.829  1.00  0.00     0.190 C 
ENDROOT
BRANCH   2   3
ATOM      3  C   UNL     1      11.020  -3.609   9.153  1.00  0.00     0.131 C 
ATOM      4  C   UNL     1      11.935  -4.281   8.093  1.00  0.00     0.009 C 
ATOM      5  C   UNL     1      11.397  -4.307  10.479  1.00  0.00     0.044 C 
ATOM      6  C   UNL     1      13.242  -4.377   8.910  1.00  0.00     0.002 C 
ATOM      7  C   UNL     1      12.239  -3.444   6.833  1.00  0.00     0.042 C 
ATOM      8  C   UNL     1      12.782  -4.949  10.247  1.00  0.00     0.008 C 
ATOM      9  C   UNL     1      14.387  -5.075   8.159  1.00  0.00    -0.000 C 
ATOM     10  C   UNL     1      13.415  -4.003   6.002  1.00  0.00     0.119 C 
ATOM     11  C   UNL     1      14.695  -4.272   6.853  1.00  0.00     0.031 C 
ATOM     12  C   UNL     1      15.639  -5.151   9.047  1.00  0.00     0.009 C 
ATOM     13  C   UNL     1      15.938  -4.846   6.056  1.00  0.00    -0.005 C 
ATOM     14  C   UNL     1      16.821  -5.760   8.307  1.00  0.00     0.032 C 
ATOM     15  C   UNL     1      17.117  -5.028   7.022  1.00  0.00    -0.060 C 
ATOM     16  C   UNL     1      16.312  -3.822   4.946  1.00  0.00     0.020 C 
ATOM     17  C   UNL     1      18.369  -4.613   6.769  1.00  0.00     0.047 C 
ATOM     18  C   UNL     1      17.701  -4.036   4.364  1.00  0.00     0.081 C 
ATOM     19  C   UNL     1      18.733  -4.019   5.462  1.00  0.00     0.155 C 
ATOM     20  O   UNL     1      19.872  -3.598   5.275  1.00  0.00    -0.295 OA
ATOM     21  C   UNL     1      11.351  -5.667   7.706  1.00  0.00     0.015 C 
ATOM     22  C   UNL     1      15.670  -6.220   5.400  1.00  0.00     0.016 C 
BRANCH   3  23
ATOM     23  O   UNL     1      11.294  -2.215   9.261  1.00  0.00    -0.381 OA
ATOM     24  H   UNL     1      11.051  -1.788   8.422  1.00  0.00     0.212 HD
ENDBRANCH   3  23
BRANCH  10  25
ATOM     25  O   UNL     1      12.994  -5.174   5.317  1.00  0.00    -0.393 OA
ATOM     26  H   UNL     1      12.025  -5.220   5.375  1.00  0.00     0.210 HD
ENDBRANCH  10  25
ENDBRANCH   2   3
BRANCH   2  27
ATOM     27  C   UNL     1       8.665  -4.279   9.901  1.00  0.00     0.234 C 
BRANCH  27  28
ATOM     28  O   UNL     1       7.997  -5.426   9.418  1.00  0.00    -0.388 OA
ATOM     29  H   UNL     1       7.043  -5.237   9.434  1.00  0.00     0.211 HD
ENDBRANCH  27  28
ENDBRANCH   2  27
TORSDOF 5
ENDMDL
MODEL 7
REMARK VINA RESULT:    -5.784      2.212      4.055
REMARK INTER + INTRA:          -6.984
REMARK INTER:                  -6.955
REMARK INTRA:                  -0.028
REMARK UNBOUND:                -0.016
REMARK SMILES C[C@]12CCC(=O)C=C1CC[C@@H]1[C@@H]2[C@@H](O)C[C@@]2(C)[C@H]1CC[C@]2(O)C(=O)CO
REMARK SMILES IDX 24 1 23 2 21 3 16 4 20 5 18 6 15 7 19 8 11 9 13 10 12 11
REMARK SMILES IDX 10 12 2 13 9 14 8 15 3 16 7 17 4 18 5 19 6 20 17 21 1 22
REMARK SMILES IDX 22 23 14 25 25 27 26 28
REMARK H PARENT 22 24 14 26 26 29
ROOT
ATOM      1  O   UNL     1      17.458  -2.931   8.354  1.00  0.00    -0.294 OA
ATOM      2  C   UNL     1      16.703  -3.889   8.194  1.00  0.00     0.190 C 
ENDROOT
BRANCH   2   3
ATOM      3  C   UNL     1      15.687  -4.263   9.232  1.00  0.00     0.131 C 
ATOM      4  C   UNL     1      14.219  -4.007   8.794  1.00  0.00     0.009 C 
ATOM      5  C   UNL     1      15.833  -3.472  10.551  1.00  0.00     0.044 C 
ATOM      6  C   UNL     1      13.524  -4.095  10.170  1.00  0.00     0.002 C 
ATOM      7  C   UNL     1      13.586  -5.082   7.887  1.00  0.00     0.042 C 
ATOM      8  C   UNL     1      14.399  -3.224  11.065  1.00  0.00     0.008 C 
ATOM      9  C   UNL     1      12.013  -3.820  10.115  1.00  0.00    -0.000 C 
ATOM     10  C   UNL     1      12.050  -4.961   7.782  1.00  0.00     0.119 C 
ATOM     11  C   UNL     1      11.344  -4.872   9.171  1.00  0.00     0.031 C 
ATOM     12  C   UNL     1      11.403  -3.903  11.523  1.00  0.00     0.009 C 
ATOM     13  C   UNL     1       9.765  -4.745   9.128  1.00  0.00    -0.005 C 
ATOM     14  C   UNL     1       9.893  -3.719  11.498  1.00  0.00     0.032 C 
ATOM     15  C   UNL     1       9.224  -4.697  10.563  1.00  0.00    -0.060 C 
ATOM     16  C   UNL     1       9.202  -5.993   8.389  1.00  0.00     0.020 C 
ATOM     17  C   UNL     1       8.191  -5.433  11.004  1.00  0.00     0.047 C 
ATOM     18  C   UNL     1       7.714  -6.212   8.611  1.00  0.00     0.081 C 
ATOM     19  C   UNL     1       7.416  -6.298  10.085  1.00  0.00     0.155 C 
ATOM     20  O   UNL     1       6.510  -7.003  10.524  1.00  0.00    -0.295 OA
ATOM     21  C   UNL     1      14.109  -2.602   8.141  1.00  0.00     0.015 C 
ATOM     22  C   UNL     1       9.267  -3.470   8.410  1.00  0.00     0.016 C 
BRANCH   3  23
ATOM     23  O   UNL     1      15.915  -5.647   9.486  1.00  0.00    -0.381 OA
ATOM     24  H   UNL     1      15.231  -5.963  10.101  1.00  0.00     0.212 HD
ENDBRANCH   3  23
BRANCH  10  25
ATOM     25  O   UNL     1      11.720  -3.848   6.962  1.00  0.00    -0.393 OA
ATOM     26  H   UNL     1      11.787  -3.047   7.507  1.00  0.00     0.210 HD
ENDBRANCH  10  25
ENDBRANCH   2   3
BRANCH   2  27
ATOM     27  C   UNL     1      16.740  -4.752   6.951  1.00  0.00     0.234 C 
BRANCH  27  28
ATOM     28  O   UNL     1      16.394  -3.997   5.809  1.00  0.00    -0.388 OA
ATOM     29  H   UNL     1      16.064  -3.135   6.117  1.00  0.00     0.211 HD
ENDBRANCH  27  28
ENDBRANCH   2  27
TORSDOF 5
ENDMDL
MODEL 8
REMARK VINA RESULT:    -5.773     10.186     13.239
REMARK INTER + INTRA:          -6.970
REMARK INTER:                  -6.805
REMARK INTRA:                  -0.165
REMARK UNBOUND:                -0.016
REMARK SMILES C[C@]12CCC(=O)C=C1CC[C@@H]1[C@@H]2[C@@H](O)C[C@@]2(C)[C@H]1CC[C@]2(O)C(=O)CO
REMARK SMILES IDX 24 1 23 2 21 3 16 4 20 5 18 6 15 7 19 8 11 9 13 10 12 11
REMARK SMILES IDX 10 12 2 13 9 14 8 15 3 16 7 17 4 18 5 19 6 20 17 21 1 22
REMARK SMILES IDX 22 23 14 25 25 27 26 28
REMARK H PARENT 22 24 14 26 26 29
ROOT
ATOM      1  O   UNL     1      24.588   0.464   6.468  1.00  0.00    -0.294 OA
ATOM      2  C   UNL     1      23.786   0.094   5.611  1.00  0.00     0.190 C 
ENDROOT
BRANCH   2   3
ATOM      3  C   UNL     1      24.239  -0.292   4.235  1.00  0.00     0.131 C 
ATOM      4  C   UNL     1      24.576  -1.802   4.086  1.00  0.00     0.009 C 
ATOM      5  C   UNL     1      25.528   0.431   3.784  1.00  0.00     0.044 C 
ATOM      6  C   UNL     1      25.361  -1.757   2.758  1.00  0.00     0.002 C 
ATOM      7  C   UNL     1      23.374  -2.747   3.881  1.00  0.00     0.042 C 
ATOM      8  C   UNL     1      26.331  -0.596   2.958  1.00  0.00     0.008 C 
ATOM      9  C   UNL     1      25.918  -3.123   2.326  1.00  0.00    -0.000 C 
ATOM     10  C   UNL     1      23.785  -4.152   3.389  1.00  0.00     0.119 C 
ATOM     11  C   UNL     1      24.726  -4.118   2.145  1.00  0.00     0.031 C 
ATOM     12  C   UNL     1      26.705  -2.988   1.012  1.00  0.00     0.009 C 
ATOM     13  C   UNL     1      25.182  -5.531   1.594  1.00  0.00    -0.005 C 
ATOM     14  C   UNL     1      27.200  -4.335   0.508  1.00  0.00     0.032 C 
ATOM     15  C   UNL     1      26.074  -5.328   0.362  1.00  0.00    -0.060 C 
ATOM     16  C   UNL     1      23.905  -6.329   1.201  1.00  0.00     0.020 C 
ATOM     17  C   UNL     1      25.929  -6.000  -0.792  1.00  0.00     0.047 C 
ATOM     18  C   UNL     1      24.186  -7.524   0.303  1.00  0.00     0.081 C 
ATOM     19  C   UNL     1      24.930  -7.084  -0.931  1.00  0.00     0.155 C 
ATOM     20  O   UNL     1      24.780  -7.645  -2.014  1.00  0.00    -0.295 OA
ATOM     21  C   UNL     1      25.439  -2.263   5.293  1.00  0.00     0.015 C 
ATOM     22  C   UNL     1      25.996  -6.360   2.615  1.00  0.00     0.016 C 
BRANCH   3  23
ATOM     23  O   UNL     1      23.165   0.082   3.377  1.00  0.00    -0.381 OA
ATOM     24  H   UNL     1      22.378  -0.433   3.626  1.00  0.00     0.212 HD
ENDBRANCH   3  23
BRANCH  10  25
ATOM     25  O   UNL     1      24.372  -4.875   4.463  1.00  0.00    -0.393 OA
ATOM     26  H   UNL     1      24.822  -5.650   4.088  1.00  0.00     0.210 HD
ENDBRANCH  10  25
ENDBRANCH   2   3
BRANCH   2  27
ATOM     27  C   UNL     1      22.298  -0.000   5.879  1.00  0.00     0.234 C 
BRANCH  27  28
ATOM     28  O   UNL     1      21.655   1.213   5.551  1.00  0.00    -0.388 OA
ATOM     29  H   UNL     1      21.651   1.290   4.581  1.00  0.00     0.211 HD
ENDBRANCH  27  28
ENDBRANCH   2  27
TORSDOF 5
ENDMDL
