MODEL 1
REMARK VINA RESULT:    -6.592      0.000      0.000
REMARK INTER + INTRA:          -8.047
REMARK INTER:                  -7.941
REMARK INTRA:                  -0.105
REMARK UNBOUND:                -0.105
REMARK SMILES C[C@]12CCC(=O)C=C1CC[C@@H]1[C@@H]2[C@@H](O)C[C@@]2(C)[C@H]1CC[C@]2(O)C(=O)CO
REMARK SMILES IDX 24 1 23 2 21 3 16 4 20 5 18 6 15 7 19 8 11 9 13 10 12 11
REMARK SMILES IDX 10 12 2 13 9 14 8 15 3 16 7 17 4 18 5 19 6 20 17 21 1 22
REMARK SMILES IDX 22 23 14 25 25 27 26 28
REMARK H PARENT 22 24 14 26 26 29
ROOT
ATOM      1  O   UNL     1      -7.223  -6.837   4.761  1.00  0.00    -0.294 OA
ATOM      2  C   UNL     1      -8.414  -6.558   4.632  1.00  0.00     0.190 C 
ENDROOT
BRANCH   2   3
ATOM      3  C   UNL     1      -9.418  -7.596   4.224  1.00  0.00     0.131 C 
ATOM      4  C   UNL     1      -9.261  -8.076   2.755  1.00  0.00     0.009 C 
ATOM      5  C   UNL     1     -10.881  -7.105   4.309  1.00  0.00     0.044 C 
ATOM      6  C   UNL     1     -10.628  -8.770   2.567  1.00  0.00     0.002 C 
ATOM      7  C   UNL     1      -8.167  -9.134   2.502  1.00  0.00     0.042 C 
ATOM      8  C   UNL     1     -11.621  -7.751   3.118  1.00  0.00     0.008 C 
ATOM      9  C   UNL     1     -10.845  -9.328   1.152  1.00  0.00    -0.000 C 
ATOM     10  C   UNL     1      -8.296  -9.824   1.126  1.00  0.00     0.119 C 
ATOM     11  C   UNL     1      -9.728 -10.378   0.847  1.00  0.00     0.031 C 
ATOM     12  C   UNL     1     -12.234  -9.977   1.041  1.00  0.00     0.009 C 
ATOM     13  C   UNL     1      -9.922 -11.097  -0.551  1.00  0.00    -0.005 C 
ATOM     14  C   UNL     1     -12.452 -10.616  -0.322  1.00  0.00     0.032 C 
ATOM     15  C   UNL     1     -11.366 -11.607  -0.659  1.00  0.00    -0.060 C 
ATOM     16  C   UNL     1      -8.929 -12.292  -0.619  1.00  0.00     0.020 C 
ATOM     17  C   UNL     1     -11.700 -12.844  -1.063  1.00  0.00     0.047 C 
ATOM     18  C   UNL     1      -9.263 -13.300  -1.709  1.00  0.00     0.081 C 
ATOM     19  C   UNL     1     -10.674 -13.800  -1.539  1.00  0.00     0.155 C 
ATOM     20  O   UNL     1     -10.999 -14.943  -1.851  1.00  0.00    -0.295 OA
ATOM     21  C   UNL     1      -9.064  -6.848   1.825  1.00  0.00     0.015 C 
ATOM     22  C   UNL     1      -9.675 -10.169  -1.762  1.00  0.00     0.016 C 
BRANCH   3  23
ATOM     23  O   UNL     1      -9.228  -8.670   5.140  1.00  0.00    -0.381 OA
ATOM     24  H   UNL     1      -8.784  -9.398   4.673  1.00  0.00     0.212 HD
ENDBRANCH   3  23
BRANCH  10  25
ATOM     25  O   UNL     1      -7.883  -8.923   0.107  1.00  0.00    -0.393 OA
ATOM     26  H   UNL     1      -8.603  -8.285  -0.035  1.00  0.00     0.210 HD
ENDBRANCH  10  25
ENDBRANCH   2   3
BRANCH   2  27
ATOM     27  C   UNL     1      -8.952  -5.164   4.873  1.00  0.00     0.234 C 
BRANCH  27  28
ATOM     28  O   UNL     1      -8.999  -4.879   6.255  1.00  0.00    -0.388 OA
ATOM     29  H   UNL     1      -9.531  -5.575   6.679  1.00  0.00     0.211 HD
ENDBRANCH  27  28
ENDBRANCH   2  27
TORSDOF 5
ENDMDL
MODEL 2
REMARK VINA RESULT:    -6.272      1.991      7.231
REMARK INTER + INTRA:          -7.661
REMARK INTER:                  -7.507
REMARK INTRA:                  -0.154
REMARK UNBOUND:                -0.105
REMARK SMILES C[C@]12CCC(=O)C=C1CC[C@@H]1[C@@H]2[C@@H](O)C[C@@]2(C)[C@H]1CC[C@]2(O)C(=O)CO
REMARK SMILES IDX 24 1 23 2 21 3 16 4 20 5 18 6 15 7 19 8 11 9 13 10 12 11
REMARK SMILES IDX 10 12 2 13 9 14 8 15 3 16 7 17 4 18 5 19 6 20 17 21 1 22
REMARK SMILES IDX 22 23 14 25 25 27 26 28
REMARK H PARENT 22 24 14 26 26 29
ROOT
ATOM      1  O   UNL     1      -8.651 -12.715  -3.393  1.00  0.00    -0.294 OA
ATOM      2  C   UNL     1      -8.040 -12.419  -2.367  1.00  0.00     0.190 C 
ENDROOT
BRANCH   2   3
ATOM      3  C   UNL     1      -7.876 -10.991  -1.941  1.00  0.00     0.131 C 
ATOM      4  C   UNL     1      -8.740 -10.601  -0.709  1.00  0.00     0.009 C 
ATOM      5  C   UNL     1      -8.284  -9.972  -3.029  1.00  0.00     0.044 C 
ATOM      6  C   UNL     1      -8.651  -9.063  -0.813  1.00  0.00     0.002 C 
ATOM      7  C   UNL     1      -8.176 -11.004   0.668  1.00  0.00     0.042 C 
ATOM      8  C   UNL     1      -8.943  -8.790  -2.286  1.00  0.00     0.008 C 
ATOM      9  C   UNL     1      -9.474  -8.326   0.255  1.00  0.00    -0.000 C 
ATOM     10  C   UNL     1      -8.878 -10.291   1.844  1.00  0.00     0.119 C 
ATOM     11  C   UNL     1      -8.952  -8.742   1.669  1.00  0.00     0.031 C 
ATOM     12  C   UNL     1      -9.352  -6.805   0.068  1.00  0.00     0.009 C 
ATOM     13  C   UNL     1      -9.662  -7.954   2.845  1.00  0.00    -0.005 C 
ATOM     14  C   UNL     1     -10.085  -6.040   1.159  1.00  0.00     0.032 C 
ATOM     15  C   UNL     1      -9.628  -6.451   2.537  1.00  0.00    -0.060 C 
ATOM     16  C   UNL     1      -8.882  -8.246   4.159  1.00  0.00     0.020 C 
ATOM     17  C   UNL     1      -9.258  -5.509   3.420  1.00  0.00     0.047 C 
ATOM     18  C   UNL     1      -9.194  -7.268   5.282  1.00  0.00     0.081 C 
ATOM     19  C   UNL     1      -8.940  -5.855   4.825  1.00  0.00     0.155 C 
ATOM     20  O   UNL     1      -8.552  -4.983   5.599  1.00  0.00    -0.295 OA
ATOM     21  C   UNL     1     -10.183 -11.146  -0.894  1.00  0.00     0.015 C 
ATOM     22  C   UNL     1     -11.144  -8.345   3.044  1.00  0.00     0.016 C 
BRANCH   3  23
ATOM     23  O   UNL     1      -6.486 -10.849  -1.661  1.00  0.00    -0.381 OA
ATOM     24  H   UNL     1      -6.370 -10.095  -1.057  1.00  0.00     0.212 HD
ENDBRANCH   3  23
BRANCH  10  25
ATOM     25  O   UNL     1     -10.170 -10.853   2.033  1.00  0.00    -0.393 OA
ATOM     26  H   UNL     1     -10.825 -10.166   1.824  1.00  0.00     0.210 HD
ENDBRANCH  10  25
ENDBRANCH   2   3
BRANCH   2  27
ATOM     27  C   UNL     1      -7.414 -13.463  -1.466  1.00  0.00     0.234 C 
BRANCH  27  28
ATOM     28  O   UNL     1      -6.016 -13.511  -1.655  1.00  0.00    -0.388 OA
ATOM     29  H   UNL     1      -5.853 -13.815  -2.565  1.00  0.00     0.211 HD
ENDBRANCH  27  28
ENDBRANCH   2  27
TORSDOF 5
ENDMDL
MODEL 3
REMARK VINA RESULT:    -6.226      1.654      2.655
REMARK INTER + INTRA:          -7.606
REMARK INTER:                  -7.541
REMARK INTRA:                  -0.064
REMARK UNBOUND:                -0.105
REMARK SMILES C[C@]12CCC(=O)C=C1CC[C@@H]1[C@@H]2[C@@H](O)C[C@@]2(C)[C@H]1CC[C@]2(O)C(=O)CO
REMARK SMILES IDX 24 1 23 2 21 3 16 4 20 5 18 6 15 7 19 8 11 9 13 10 12 11
REMARK SMILES IDX 10 12 2 13 9 14 8 15 3 16 7 17 4 18 5 19 6 20 17 21 1 22
REMARK SMILES IDX 22 23 14 25 25 27 26 28
REMARK H PARENT 22 24 14 26 26 29
ROOT
ATOM      1  O   UNL     1      -8.967  -9.123   4.538  1.00  0.00    -0.294 OA
ATOM      2  C   UNL     1      -9.288  -8.221   3.765  1.00  0.00     0.190 C 
ENDROOT
BRANCH   2   3
ATOM      3  C   UNL     1     -10.018  -8.512   2.487  1.00  0.00     0.131 C 
ATOM      4  C   UNL     1      -9.267  -9.495   1.546  1.00  0.00     0.009 C 
ATOM      5  C   UNL     1     -10.259  -7.259   1.615  1.00  0.00     0.044 C 
ATOM      6  C   UNL     1     -10.050  -9.243   0.239  1.00  0.00     0.002 C 
ATOM      7  C   UNL     1      -9.403 -10.993   1.885  1.00  0.00     0.042 C 
ATOM      8  C   UNL     1     -10.110  -7.721   0.150  1.00  0.00     0.008 C 
ATOM      9  C   UNL     1      -9.513 -10.037  -0.962  1.00  0.00    -0.000 C 
ATOM     10  C   UNL     1      -8.948 -11.919   0.735  1.00  0.00     0.119 C 
ATOM     11  C   UNL     1      -9.601 -11.563  -0.636  1.00  0.00     0.031 C 
ATOM     12  C   UNL     1     -10.329  -9.712  -2.224  1.00  0.00     0.009 C 
ATOM     13  C   UNL     1      -9.172 -12.479  -1.855  1.00  0.00    -0.005 C 
ATOM     14  C   UNL     1      -9.880 -10.544  -3.416  1.00  0.00     0.032 C 
ATOM     15  C   UNL     1      -9.918 -12.022  -3.116  1.00  0.00    -0.060 C 
ATOM     16  C   UNL     1      -9.557 -13.947  -1.513  1.00  0.00     0.020 C 
ATOM     17  C   UNL     1     -10.551 -12.853  -3.961  1.00  0.00     0.047 C 
ATOM     18  C   UNL     1      -9.573 -14.871  -2.722  1.00  0.00     0.081 C 
ATOM     19  C   UNL     1     -10.492 -14.322  -3.782  1.00  0.00     0.155 C 
ATOM     20  O   UNL     1     -11.124 -15.058  -4.536  1.00  0.00    -0.295 OA
ATOM     21  C   UNL     1      -7.772  -9.084   1.453  1.00  0.00     0.015 C 
ATOM     22  C   UNL     1      -7.661 -12.418  -2.173  1.00  0.00     0.016 C 
BRANCH   3  23
ATOM     23  O   UNL     1     -11.273  -9.049   2.897  1.00  0.00    -0.381 OA
ATOM     24  H   UNL     1     -11.129  -9.956   3.218  1.00  0.00     0.212 HD
ENDBRANCH   3  23
BRANCH  10  25
ATOM     25  O   UNL     1      -7.529 -11.904   0.652  1.00  0.00    -0.393 OA
ATOM     26  H   UNL     1      -7.211 -11.132   1.150  1.00  0.00     0.210 HD
ENDBRANCH  10  25
ENDBRANCH   2   3
BRANCH   2  27
ATOM     27  C   UNL     1      -8.976  -6.765   4.041  1.00  0.00     0.234 C 
BRANCH  27  28
ATOM     28  O   UNL     1      -7.792  -6.646   4.802  1.00  0.00    -0.388 OA
ATOM     29  H   UNL     1      -7.060  -6.990   4.262  1.00  0.00     0.211 HD
ENDBRANCH  27  28
ENDBRANCH   2  27
TORSDOF 5
ENDMDL
MODEL 4
REMARK VINA RESULT:    -6.066      1.660      2.638
REMARK INTER + INTRA:          -7.412
REMARK INTER:                  -7.287
REMARK INTRA:                  -0.126
REMARK UNBOUND:                -0.105
REMARK SMILES C[C@]12CCC(=O)C=C1CC[C@@H]1[C@@H]2[C@@H](O)C[C@@]2(C)[C@H]1CC[C@]2(O)C(=O)CO
REMARK SMILES IDX 24 1 23 2 21 3 16 4 20 5 18 6 15 7 19 8 11 9 13 10 12 11
REMARK SMILES IDX 10 12 2 13 9 14 8 15 3 16 7 17 4 18 5 19 6 20 17 21 1 22
REMARK SMILES IDX 22 23 14 25 25 27 26 28
REMARK H PARENT 22 24 14 26 26 29
ROOT
ATOM      1  O   UNL     1     -10.791  -7.107   4.942  1.00  0.00    -0.294 OA
ATOM      2  C   UNL     1     -10.205  -6.421   4.106  1.00  0.00     0.190 C 
ENDROOT
BRANCH   2   3
ATOM      3  C   UNL     1     -10.308  -6.721   2.640  1.00  0.00     0.131 C 
ATOM      4  C   UNL     1      -9.801  -8.139   2.254  1.00  0.00     0.009 C 
ATOM      5  C   UNL     1      -9.476  -5.766   1.755  1.00  0.00     0.044 C 
ATOM      6  C   UNL     1      -9.665  -7.952   0.727  1.00  0.00     0.002 C 
ATOM      7  C   UNL     1     -10.790  -9.298   2.490  1.00  0.00     0.042 C 
ATOM      8  C   UNL     1      -8.923  -6.625   0.597  1.00  0.00     0.008 C 
ATOM      9  C   UNL     1      -9.106  -9.187   0.004  1.00  0.00    -0.000 C 
ATOM     10  C   UNL     1     -10.380 -10.602   1.770  1.00  0.00     0.119 C 
ATOM     11  C   UNL     1     -10.067 -10.395   0.256  1.00  0.00     0.031 C 
ATOM     12  C   UNL     1      -8.978  -8.912  -1.503  1.00  0.00     0.009 C 
ATOM     13  C   UNL     1      -9.640 -11.698  -0.538  1.00  0.00    -0.005 C 
ATOM     14  C   UNL     1      -8.508 -10.142  -2.265  1.00  0.00     0.032 C 
ATOM     15  C   UNL     1      -9.396 -11.334  -2.009  1.00  0.00    -0.060 C 
ATOM     16  C   UNL     1     -10.801 -12.728  -0.430  1.00  0.00     0.020 C 
ATOM     17  C   UNL     1      -9.889 -12.028  -3.049  1.00  0.00     0.047 C 
ATOM     18  C   UNL     1     -10.713 -13.853  -1.451  1.00  0.00     0.081 C 
ATOM     19  C   UNL     1     -10.645 -13.285  -2.844  1.00  0.00     0.155 C 
ATOM     20  O   UNL     1     -11.131 -13.872  -3.808  1.00  0.00    -0.295 OA
ATOM     21  C   UNL     1      -8.447  -8.417   2.961  1.00  0.00     0.015 C 
ATOM     22  C   UNL     1      -8.342 -12.347  -0.007  1.00  0.00     0.016 C 
BRANCH   3  23
ATOM     23  O   UNL     1     -11.690  -6.566   2.330  1.00  0.00    -0.381 OA
ATOM     24  H   UNL     1     -11.832  -6.845   1.409  1.00  0.00     0.212 HD
ENDBRANCH   3  23
BRANCH  10  25
ATOM     25  O   UNL     1      -9.280 -11.191   2.450  1.00  0.00    -0.393 OA
ATOM     26  H   UNL     1      -9.477 -11.174   3.402  1.00  0.00     0.210 HD
ENDBRANCH  10  25
ENDBRANCH   2   3
BRANCH   2  27
ATOM     27  C   UNL     1      -9.347  -5.233   4.488  1.00  0.00     0.234 C 
BRANCH  27  28
ATOM     28  O   UNL     1      -8.157  -5.660   5.117  1.00  0.00    -0.388 OA
ATOM     29  H   UNL     1      -8.306  -6.565   5.442  1.00  0.00     0.211 HD
ENDBRANCH  27  28
ENDBRANCH   2  27
TORSDOF 5
ENDMDL
MODEL 5
REMARK VINA RESULT:    -5.988      2.190      7.446
REMARK INTER + INTRA:          -7.318
REMARK INTER:                  -7.119
REMARK INTRA:                  -0.199
REMARK UNBOUND:                -0.105
REMARK SMILES C[C@]12CCC(=O)C=C1CC[C@@H]1[C@@H]2[C@@H](O)C[C@@]2(C)[C@H]1CC[C@]2(O)C(=O)CO
REMARK SMILES IDX 24 1 23 2 21 3 16 4 20 5 18 6 15 7 19 8 11 9 13 10 12 11
REMARK SMILES IDX 10 12 2 13 9 14 8 15 3 16 7 17 4 18 5 19 6 20 17 21 1 22
REMARK SMILES IDX 22 23 14 25 25 27 26 28
REMARK H PARENT 22 24 14 26 26 29
ROOT
ATOM      1  O   UNL     1     -12.483 -12.576  -1.409  1.00  0.00    -0.294 OA
ATOM      2  C   UNL     1     -13.014 -12.098  -0.407  1.00  0.00     0.190 C 
ENDROOT
BRANCH   2   3
ATOM      3  C   UNL     1     -12.218 -11.798   0.828  1.00  0.00     0.131 C 
ATOM      4  C   UNL     1     -11.802 -10.306   0.959  1.00  0.00     0.009 C 
ATOM      5  C   UNL     1     -10.884 -12.573   0.907  1.00  0.00     0.044 C 
ATOM      6  C   UNL     1     -10.712 -10.441   2.044  1.00  0.00     0.002 C 
ATOM      7  C   UNL     1     -12.881  -9.348   1.504  1.00  0.00     0.042 C 
ATOM      8  C   UNL     1      -9.865 -11.610   1.552  1.00  0.00     0.008 C 
ATOM      9  C   UNL     1     -10.018  -9.113   2.387  1.00  0.00    -0.000 C 
ATOM     10  C   UNL     1     -12.313  -7.981   1.943  1.00  0.00     0.119 C 
ATOM     11  C   UNL     1     -11.092  -8.103   2.907  1.00  0.00     0.031 C 
ATOM     12  C   UNL     1      -8.934  -9.337   3.453  1.00  0.00     0.009 C 
ATOM     13  C   UNL     1     -10.465  -6.732   3.393  1.00  0.00    -0.005 C 
ATOM     14  C   UNL     1      -8.282  -8.031   3.880  1.00  0.00     0.032 C 
ATOM     15  C   UNL     1      -9.301  -7.022   4.351  1.00  0.00    -0.060 C 
ATOM     16  C   UNL     1     -11.574  -5.930   4.131  1.00  0.00     0.020 C 
ATOM     17  C   UNL     1      -9.130  -6.412   5.535  1.00  0.00     0.047 C 
ATOM     18  C   UNL     1     -11.037  -4.792   4.985  1.00  0.00     0.081 C 
ATOM     19  C   UNL     1     -10.025  -5.315   5.971  1.00  0.00     0.155 C 
ATOM     20  O   UNL     1      -9.880  -4.811   7.082  1.00  0.00    -0.295 OA
ATOM     21  C   UNL     1     -11.252  -9.800  -0.403  1.00  0.00     0.015 C 
ATOM     22  C   UNL     1      -9.903  -5.868   2.241  1.00  0.00     0.016 C 
BRANCH   3  23
ATOM     23  O   UNL     1     -13.057 -12.195   1.910  1.00  0.00    -0.381 OA
ATOM     24  H   UNL     1     -12.622 -12.924   2.385  1.00  0.00     0.212 HD
ENDBRANCH   3  23
BRANCH  10  25
ATOM     25  O   UNL     1     -11.987  -7.214   0.791  1.00  0.00    -0.393 OA
ATOM     26  H   UNL     1     -12.819  -6.897   0.401  1.00  0.00     0.210 HD
ENDBRANCH  10  25
ENDBRANCH   2   3
BRANCH   2  27
ATOM     27  C   UNL     1     -14.493 -11.780  -0.347  1.00  0.00     0.234 C 
BRANCH  27  28
ATOM     28  O   UNL     1     -15.224 -12.897   0.112  1.00  0.00    -0.388 OA
ATOM     29  H   UNL     1     -14.583 -13.584   0.364  1.00  0.00     0.211 HD
ENDBRANCH  27  28
ENDBRANCH   2  27
TORSDOF 5
ENDMDL
MODEL 6
REMARK VINA RESULT:    -5.979     16.990     19.046
REMARK INTER + INTRA:          -7.308
REMARK INTER:                  -7.420
REMARK INTRA:                   0.112
REMARK UNBOUND:                -0.105
REMARK SMILES C[C@]12CCC(=O)C=C1CC[C@@H]1[C@@H]2[C@@H](O)C[C@@]2(C)[C@H]1CC[C@]2(O)C(=O)CO
REMARK SMILES IDX 24 1 23 2 21 3 16 4 20 5 18 6 15 7 19 8 11 9 13 10 12 11
REMARK SMILES IDX 10 12 2 13 9 14 8 15 3 16 7 17 4 18 5 19 6 20 17 21 1 22
REMARK SMILES IDX 22 23 14 25 25 27 26 28
REMARK H PARENT 22 24 14 26 26 29
ROOT
ATOM      1  O   UNL     1       3.295 -22.468   0.280  1.00  0.00    -0.294 OA
ATOM      2  C   UNL     1       2.086 -22.488   0.053  1.00  0.00     0.190 C 
ENDROOT
BRANCH   2   3
ATOM      3  C   UNL     1       1.084 -22.522   1.168  1.00  0.00     0.131 C 
ATOM      4  C   UNL     1       1.578 -23.279   2.432  1.00  0.00     0.009 C 
ATOM      5  C   UNL     1      -0.236 -23.232   0.790  1.00  0.00     0.044 C 
ATOM      6  C   UNL     1       0.228 -23.471   3.156  1.00  0.00     0.002 C 
ATOM      7  C   UNL     1       2.501 -22.486   3.379  1.00  0.00     0.042 C 
ATOM      8  C   UNL     1      -0.695 -23.987   2.056  1.00  0.00     0.008 C 
ATOM      9  C   UNL     1       0.340 -24.269   4.465  1.00  0.00    -0.000 C 
ATOM     10  C   UNL     1       2.663 -23.148   4.764  1.00  0.00     0.119 C 
ATOM     11  C   UNL     1       1.302 -23.510   5.436  1.00  0.00     0.031 C 
ATOM     12  C   UNL     1      -1.045 -24.437   5.109  1.00  0.00     0.009 C 
ATOM     13  C   UNL     1       1.404 -24.193   6.861  1.00  0.00    -0.005 C 
ATOM     14  C   UNL     1      -0.963 -25.149   6.450  1.00  0.00     0.032 C 
ATOM     15  C   UNL     1      -0.011 -24.459   7.395  1.00  0.00    -0.060 C 
ATOM     16  C   UNL     1       2.156 -23.217   7.810  1.00  0.00     0.020 C 
ATOM     17  C   UNL     1      -0.417 -24.150   8.638  1.00  0.00     0.047 C 
ATOM     18  C   UNL     1       1.988 -23.550   9.285  1.00  0.00     0.081 C 
ATOM     19  C   UNL     1       0.525 -23.604   9.641  1.00  0.00     0.155 C 
ATOM     20  O   UNL     1       0.116 -23.279  10.754  1.00  0.00    -0.295 OA
ATOM     21  C   UNL     1       2.242 -24.618   2.008  1.00  0.00     0.015 C 
ATOM     22  C   UNL     1       2.147 -25.549   6.845  1.00  0.00     0.016 C 
BRANCH   3  23
ATOM     23  O   UNL     1       0.814 -21.153   1.460  1.00  0.00    -0.381 OA
ATOM     24  H   UNL     1       0.909 -20.639   0.640  1.00  0.00     0.212 HD
ENDBRANCH   3  23
BRANCH  10  25
ATOM     25  O   UNL     1       3.501 -24.289   4.646  1.00  0.00    -0.393 OA
ATOM     26  H   UNL     1       4.211 -24.206   5.305  1.00  0.00     0.210 HD
ENDBRANCH  10  25
ENDBRANCH   2   3
BRANCH   2  27
ATOM     27  C   UNL     1       1.524 -22.479  -1.353  1.00  0.00     0.234 C 
BRANCH  27  28
ATOM     28  O   UNL     1       1.124 -21.175  -1.722  1.00  0.00    -0.388 OA
ATOM     29  H   UNL     1       0.567 -20.826  -1.005  1.00  0.00     0.211 HD
ENDBRANCH  27  28
ENDBRANCH   2  27
TORSDOF 5
ENDMDL
MODEL 7
REMARK VINA RESULT:    -5.961      3.346      5.324
REMARK INTER + INTRA:          -7.286
REMARK INTER:                  -7.196
REMARK INTRA:                  -0.089
REMARK UNBOUND:                -0.105
REMARK SMILES C[C@]12CCC(=O)C=C1CC[C@@H]1[C@@H]2[C@@H](O)C[C@@]2(C)[C@H]1CC[C@]2(O)C(=O)CO
REMARK SMILES IDX 24 1 23 2 21 3 16 4 20 5 18 6 15 7 19 8 11 9 13 10 12 11
REMARK SMILES IDX 10 12 2 13 9 14 8 15 3 16 7 17 4 18 5 19 6 20 17 21 1 22
REMARK SMILES IDX 22 23 14 25 25 27 26 28
REMARK H PARENT 22 24 14 26 26 29
ROOT
ATOM      1  O   UNL     1      -8.790  -7.992   1.787  1.00  0.00    -0.294 OA
ATOM      2  C   UNL     1      -8.808  -9.221   1.847  1.00  0.00     0.190 C 
ENDROOT
BRANCH   2   3
ATOM      3  C   UNL     1      -8.330 -10.064   0.702  1.00  0.00     0.131 C 
ATOM      4  C   UNL     1      -9.230  -9.974  -0.561  1.00  0.00     0.009 C 
ATOM      5  C   UNL     1      -8.280 -11.574   1.027  1.00  0.00     0.044 C 
ATOM      6  C   UNL     1      -8.714 -11.211  -1.329  1.00  0.00     0.002 C 
ATOM      7  C   UNL     1      -9.007  -8.744  -1.465  1.00  0.00     0.042 C 
ATOM      8  C   UNL     1      -8.699 -12.306  -0.266  1.00  0.00     0.008 C 
ATOM      9  C   UNL     1      -9.457 -11.469  -2.649  1.00  0.00    -0.000 C 
ATOM     10  C   UNL     1      -9.658  -8.888  -2.858  1.00  0.00     0.119 C 
ATOM     11  C   UNL     1      -9.284 -10.222  -3.576  1.00  0.00     0.031 C 
ATOM     12  C   UNL     1      -8.903 -12.726  -3.337  1.00  0.00     0.009 C 
ATOM     13  C   UNL     1      -9.922 -10.427  -5.011  1.00  0.00    -0.005 C 
ATOM     14  C   UNL     1      -9.556 -12.966  -4.689  1.00  0.00     0.032 C 
ATOM     15  C   UNL     1      -9.438 -11.763  -5.592  1.00  0.00    -0.060 C 
ATOM     16  C   UNL     1      -9.455  -9.253  -5.919  1.00  0.00     0.020 C 
ATOM     17  C   UNL     1      -8.963 -11.915  -6.839  1.00  0.00     0.047 C 
ATOM     18  C   UNL     1      -9.654  -9.514  -7.404  1.00  0.00     0.081 C 
ATOM     19  C   UNL     1      -8.963 -10.791  -7.804  1.00  0.00     0.155 C 
ATOM     20  O   UNL     1      -8.474 -10.942  -8.921  1.00  0.00    -0.295 OA
ATOM     21  C   UNL     1     -10.722 -10.089  -0.145  1.00  0.00     0.015 C 
ATOM     22  C   UNL     1     -11.467 -10.469  -5.000  1.00  0.00     0.016 C 
BRANCH   3  23
ATOM     23  O   UNL     1      -7.011  -9.598   0.429  1.00  0.00    -0.381 OA
ATOM     24  H   UNL     1      -6.445 -10.368   0.248  1.00  0.00     0.212 HD
ENDBRANCH   3  23
BRANCH  10  25
ATOM     25  O   UNL     1     -11.066  -8.743  -2.738  1.00  0.00    -0.393 OA
ATOM     26  H   UNL     1     -11.420  -8.541  -3.620  1.00  0.00     0.210 HD
ENDBRANCH  10  25
ENDBRANCH   2   3
BRANCH   2  27
ATOM     27  C   UNL     1      -9.307  -9.967   3.066  1.00  0.00     0.234 C 
BRANCH  27  28
ATOM     28  O   UNL     1      -8.950  -9.283   4.249  1.00  0.00    -0.388 OA
ATOM     29  H   UNL     1      -9.366  -8.405   4.217  1.00  0.00     0.211 HD
ENDBRANCH  27  28
ENDBRANCH   2  27
TORSDOF 5
ENDMDL
MODEL 8
REMARK VINA RESULT:    -5.760      2.447      3.812
REMARK INTER + INTRA:          -7.044
REMARK INTER:                  -6.848
REMARK INTRA:                  -0.197
REMARK UNBOUND:                -0.105
REMARK SMILES C[C@]12CCC(=O)C=C1CC[C@@H]1[C@@H]2[C@@H](O)C[C@@]2(C)[C@H]1CC[C@]2(O)C(=O)CO
REMARK SMILES IDX 24 1 23 2 21 3 16 4 20 5 18 6 15 7 19 8 11 9 13 10 12 11
REMARK SMILES IDX 10 12 2 13 9 14 8 15 3 16 7 17 4 18 5 19 6 20 17 21 1 22
REMARK SMILES IDX 22 23 14 25 25 27 26 28
REMARK H PARENT 22 24 14 26 26 29
ROOT
ATOM      1  O   UNL     1     -12.016  -3.732   5.826  1.00  0.00    -0.294 OA
ATOM      2  C   UNL     1     -11.145  -3.684   4.958  1.00  0.00     0.190 C 
ENDROOT
BRANCH   2   3
ATOM      3  C   UNL     1     -10.177  -4.813   4.762  1.00  0.00     0.131 C 
ATOM      4  C   UNL     1     -10.583  -5.797   3.630  1.00  0.00     0.009 C 
ATOM      5  C   UNL     1     -10.017  -5.712   6.008  1.00  0.00     0.044 C 
ATOM      6  C   UNL     1      -9.652  -6.979   3.975  1.00  0.00     0.002 C 
ATOM      7  C   UNL     1     -10.247  -5.350   2.192  1.00  0.00     0.042 C 
ATOM      8  C   UNL     1      -9.843  -7.152   5.479  1.00  0.00     0.008 C 
ATOM      9  C   UNL     1      -9.840  -8.199   3.059  1.00  0.00    -0.000 C 
ATOM     10  C   UNL     1     -10.342  -6.497   1.162  1.00  0.00     0.119 C 
ATOM     11  C   UNL     1      -9.545  -7.770   1.585  1.00  0.00     0.031 C 
ATOM     12  C   UNL     1      -8.899  -9.336   3.484  1.00  0.00     0.009 C 
ATOM     13  C   UNL     1      -9.604  -8.983   0.567  1.00  0.00    -0.005 C 
ATOM     14  C   UNL     1      -8.996 -10.531   2.546  1.00  0.00     0.032 C 
ATOM     15  C   UNL     1      -8.753 -10.139   1.110  1.00  0.00    -0.060 C 
ATOM     16  C   UNL     1      -9.033  -8.496  -0.796  1.00  0.00     0.020 C 
ATOM     17  C   UNL     1      -7.856 -10.822   0.379  1.00  0.00     0.047 C 
ATOM     18  C   UNL     1      -8.661  -9.628  -1.740  1.00  0.00     0.081 C 
ATOM     19  C   UNL     1      -7.690 -10.565  -1.070  1.00  0.00     0.155 C 
ATOM     20  O   UNL     1      -6.825 -11.166  -1.704  1.00  0.00    -0.295 OA
ATOM     21  C   UNL     1     -12.091  -6.145   3.760  1.00  0.00     0.015 C 
ATOM     22  C   UNL     1     -11.031  -9.533   0.344  1.00  0.00     0.016 C 
BRANCH   3  23
ATOM     23  O   UNL     1      -8.932  -4.182   4.474  1.00  0.00    -0.381 OA
ATOM     24  H   UNL     1      -8.404  -4.783   3.921  1.00  0.00     0.212 HD
ENDBRANCH   3  23
BRANCH  10  25
ATOM     25  O   UNL     1     -11.709  -6.800   0.918  1.00  0.00    -0.393 OA
ATOM     26  H   UNL     1     -11.765  -7.737   0.666  1.00  0.00     0.210 HD
ENDBRANCH  10  25
ENDBRANCH   2   3
BRANCH   2  27
ATOM     27  C   UNL     1     -10.987  -2.496   4.033  1.00  0.00     0.234 C 
BRANCH  27  28
ATOM     28  O   UNL     1     -10.088  -1.554   4.580  1.00  0.00    -0.388 OA
ATOM     29  H   UNL     1     -10.613  -0.904   5.078  1.00  0.00     0.211 HD
ENDBRANCH  27  28
ENDBRANCH   2  27
TORSDOF 5
ENDMDL
MODEL 9
REMARK VINA RESULT:    -5.577      3.181      6.345
REMARK INTER + INTRA:          -6.823
REMARK INTER:                  -6.742
REMARK INTRA:                  -0.082
REMARK UNBOUND:                -0.105
REMARK SMILES C[C@]12CCC(=O)C=C1CC[C@@H]1[C@@H]2[C@@H](O)C[C@@]2(C)[C@H]1CC[C@]2(O)C(=O)CO
REMARK SMILES IDX 24 1 23 2 21 3 16 4 20 5 18 6 15 7 19 8 11 9 13 10 12 11
REMARK SMILES IDX 10 12 2 13 9 14 8 15 3 16 7 17 4 18 5 19 6 20 17 21 1 22
REMARK SMILES IDX 22 23 14 25 25 27 26 28
REMARK H PARENT 22 24 14 26 26 29
ROOT
ATOM      1  O   UNL     1      -5.553 -12.146   0.931  1.00  0.00    -0.294 OA
ATOM      2  C   UNL     1      -6.033 -12.079  -0.200  1.00  0.00     0.190 C 
ENDROOT
BRANCH   2   3
ATOM      3  C   UNL     1      -6.952 -10.960  -0.592  1.00  0.00     0.131 C 
ATOM      4  C   UNL     1      -8.377 -11.077   0.016  1.00  0.00     0.009 C 
ATOM      5  C   UNL     1      -7.195 -10.866  -2.115  1.00  0.00     0.044 C 
ATOM      6  C   UNL     1      -9.121 -10.064  -0.881  1.00  0.00     0.002 C 
ATOM      7  C   UNL     1      -8.532 -10.601   1.475  1.00  0.00     0.042 C 
ATOM      8  C   UNL     1      -8.669 -10.441  -2.289  1.00  0.00     0.008 C 
ATOM      9  C   UNL     1     -10.626  -9.969  -0.585  1.00  0.00    -0.000 C 
ATOM     10  C   UNL     1     -10.005 -10.407   1.898  1.00  0.00     0.119 C 
ATOM     11  C   UNL     1     -10.819  -9.525   0.901  1.00  0.00     0.031 C 
ATOM     12  C   UNL     1     -11.294  -8.962  -1.535  1.00  0.00     0.009 C 
ATOM     13  C   UNL     1     -12.339  -9.290   1.281  1.00  0.00    -0.005 C 
ATOM     14  C   UNL     1     -12.770  -8.777  -1.216  1.00  0.00     0.032 C 
ATOM     15  C   UNL     1     -12.988  -8.386   0.224  1.00  0.00    -0.060 C 
ATOM     16  C   UNL     1     -12.385  -8.598   2.674  1.00  0.00     0.020 C 
ATOM     17  C   UNL     1     -13.751  -7.318   0.512  1.00  0.00     0.047 C 
ATOM     18  C   UNL     1     -13.728  -7.959   2.992  1.00  0.00     0.081 C 
ATOM     19  C   UNL     1     -14.108  -6.982   1.910  1.00  0.00     0.155 C 
ATOM     20  O   UNL     1     -14.761  -5.970   2.150  1.00  0.00    -0.295 OA
ATOM     21  C   UNL     1      -8.893 -12.534  -0.145  1.00  0.00     0.015 C 
ATOM     22  C   UNL     1     -13.170 -10.592   1.340  1.00  0.00     0.016 C 
BRANCH   3  23
ATOM     23  O   UNL     1      -6.298  -9.775  -0.146  1.00  0.00    -0.381 OA
ATOM     24  H   UNL     1      -5.750  -9.434  -0.873  1.00  0.00     0.212 HD
ENDBRANCH   3  23
BRANCH  10  25
ATOM     25  O   UNL     1     -10.614 -11.678   2.081  1.00  0.00    -0.393 OA
ATOM     26  H   UNL     1      -9.907 -12.327   2.235  1.00  0.00     0.210 HD
ENDBRANCH  10  25
ENDBRANCH   2   3
BRANCH   2  27
ATOM     27  C   UNL     1      -5.736 -13.108  -1.271  1.00  0.00     0.234 C 
BRANCH  27  28
ATOM     28  O   UNL     1      -4.376 -13.058  -1.646  1.00  0.00    -0.388 OA
ATOM     29  H   UNL     1      -4.342 -12.951  -2.612  1.00  0.00     0.211 HD
ENDBRANCH  27  28
ENDBRANCH   2  27
TORSDOF 5
ENDMDL
