MODEL 1
REMARK VINA RESULT:    -6.793      0.000      0.000
REMARK INTER + INTRA:          -8.367
REMARK INTER:                  -8.183
REMARK INTRA:                  -0.184
REMARK UNBOUND:                -0.184
REMARK SMILES C[C@]12CCC(=O)C=C1CC[C@@H]1[C@@H]2[C@@H](O)C[C@@]2(C)[C@H]1CC[C@]2(O)C(=O)CO
REMARK SMILES IDX 24 1 23 2 21 3 16 4 20 5 18 6 15 7 19 8 11 9 13 10 12 11
REMARK SMILES IDX 10 12 2 13 9 14 8 15 3 16 7 17 4 18 5 19 6 20 17 21 1 22
REMARK SMILES IDX 22 23 14 25 25 27 26 28
REMARK H PARENT 22 24 14 26 26 29
ROOT
ATOM      1  O   UNL     1     -17.201 -35.326   3.903  1.00  0.00    -0.294 OA
ATOM      2  C   UNL     1     -16.449 -34.355   3.822  1.00  0.00     0.190 C 
ENDROOT
BRANCH   2   3
ATOM      3  C   UNL     1     -16.655 -33.137   4.672  1.00  0.00     0.131 C 
ATOM      4  C   UNL     1     -15.695 -33.054   5.891  1.00  0.00     0.009 C 
ATOM      5  C   UNL     1     -18.067 -33.050   5.293  1.00  0.00     0.044 C 
ATOM      6  C   UNL     1     -16.428 -31.976   6.719  1.00  0.00     0.002 C 
ATOM      7  C   UNL     1     -14.275 -32.526   5.600  1.00  0.00     0.042 C 
ATOM      8  C   UNL     1     -17.881 -32.443   6.701  1.00  0.00     0.008 C 
ATOM      9  C   UNL     1     -15.761 -31.679   8.071  1.00  0.00    -0.000 C 
ATOM     10  C   UNL     1     -13.500 -32.133   6.877  1.00  0.00     0.119 C 
ATOM     11  C   UNL     1     -14.303 -31.177   7.814  1.00  0.00     0.031 C 
ATOM     12  C   UNL     1     -16.563 -30.618   8.841  1.00  0.00     0.009 C 
ATOM     13  C   UNL     1     -13.559 -30.738   9.141  1.00  0.00    -0.005 C 
ATOM     14  C   UNL     1     -15.887 -30.236  10.149  1.00  0.00     0.032 C 
ATOM     15  C   UNL     1     -14.464 -29.784   9.934  1.00  0.00    -0.060 C 
ATOM     16  C   UNL     1     -12.244 -30.012   8.738  1.00  0.00     0.020 C 
ATOM     17  C   UNL     1     -14.051 -28.620  10.462  1.00  0.00     0.047 C 
ATOM     18  C   UNL     1     -11.628 -29.197   9.865  1.00  0.00     0.081 C 
ATOM     19  C   UNL     1     -12.631 -28.207  10.398  1.00  0.00     0.155 C 
ATOM     20  O   UNL     1     -12.290 -27.112  10.840  1.00  0.00    -0.295 OA
ATOM     21  C   UNL     1     -15.634 -34.435   6.600  1.00  0.00     0.015 C 
ATOM     22  C   UNL     1     -13.213 -31.920  10.076  1.00  0.00     0.016 C 
BRANCH   3  23
ATOM     23  O   UNL     1     -16.461 -32.036   3.788  1.00  0.00    -0.381 OA
ATOM     24  H   UNL     1     -17.171 -31.389   3.942  1.00  0.00     0.212 HD
ENDBRANCH   3  23
BRANCH  10  25
ATOM     25  O   UNL     1     -13.094 -33.309   7.563  1.00  0.00    -0.393 OA
ATOM     26  H   UNL     1     -12.493 -33.801   6.978  1.00  0.00     0.210 HD
ENDBRANCH  10  25
ENDBRANCH   2   3
BRANCH   2  27
ATOM     27  C   UNL     1     -15.272 -34.317   2.870  1.00  0.00     0.234 C 
BRANCH  27  28
ATOM     28  O   UNL     1     -15.603 -33.604   1.697  1.00  0.00    -0.388 OA
ATOM     29  H   UNL     1     -16.403 -33.084   1.886  1.00  0.00     0.211 HD
ENDBRANCH  27  28
ENDBRANCH   2  27
TORSDOF 5
ENDMDL
MODEL 2
REMARK VINA RESULT:    -6.623      8.998     10.129
REMARK INTER + INTRA:          -8.163
REMARK INTER:                  -8.168
REMARK INTRA:                   0.006
REMARK UNBOUND:                -0.184
REMARK SMILES C[C@]12CCC(=O)C=C1CC[C@@H]1[C@@H]2[C@@H](O)C[C@@]2(C)[C@H]1CC[C@]2(O)C(=O)CO
REMARK SMILES IDX 24 1 23 2 21 3 16 4 20 5 18 6 15 7 19 8 11 9 13 10 12 11
REMARK SMILES IDX 10 12 2 13 9 14 8 15 3 16 7 17 4 18 5 19 6 20 17 21 1 22
REMARK SMILES IDX 22 23 14 25 25 27 26 28
REMARK H PARENT 22 24 14 26 26 29
ROOT
ATOM      1  O   UNL     1     -20.932 -34.008  -3.383  1.00  0.00    -0.294 OA
ATOM      2  C   UNL     1     -20.794 -33.612  -2.227  1.00  0.00     0.190 C 
ENDROOT
BRANCH   2   3
ATOM      3  C   UNL     1     -19.485 -33.063  -1.742  1.00  0.00     0.131 C 
ATOM      4  C   UNL     1     -19.283 -31.554  -2.053  1.00  0.00     0.009 C 
ATOM      5  C   UNL     1     -18.255 -33.750  -2.378  1.00  0.00     0.044 C 
ATOM      6  C   UNL     1     -17.762 -31.447  -1.812  1.00  0.00     0.002 C 
ATOM      7  C   UNL     1     -19.974 -30.567  -1.091  1.00  0.00     0.042 C 
ATOM      8  C   UNL     1     -17.197 -32.643  -2.572  1.00  0.00     0.008 C 
ATOM      9  C   UNL     1     -17.191 -30.049  -2.099  1.00  0.00    -0.000 C 
ATOM     10  C   UNL     1     -19.455 -29.119  -1.231  1.00  0.00     0.119 C 
ATOM     11  C   UNL     1     -17.900 -29.014  -1.165  1.00  0.00     0.031 C 
ATOM     12  C   UNL     1     -15.673 -30.032  -1.860  1.00  0.00     0.009 C 
ATOM     13  C   UNL     1     -17.307 -27.552  -1.303  1.00  0.00    -0.005 C 
ATOM     14  C   UNL     1     -15.086 -28.642  -2.053  1.00  0.00     0.032 C 
ATOM     15  C   UNL     1     -15.777 -27.616  -1.191  1.00  0.00    -0.060 C 
ATOM     16  C   UNL     1     -17.890 -26.685  -0.150  1.00  0.00     0.020 C 
ATOM     17  C   UNL     1     -15.045 -26.801  -0.414  1.00  0.00     0.047 C 
ATOM     18  C   UNL     1     -17.125 -25.392   0.086  1.00  0.00     0.081 C 
ATOM     19  C   UNL     1     -15.669 -25.688   0.337  1.00  0.00     0.155 C 
ATOM     20  O   UNL     1     -14.985 -24.991   1.083  1.00  0.00    -0.295 OA
ATOM     21  C   UNL     1     -19.693 -31.268  -3.524  1.00  0.00     0.015 C 
ATOM     22  C   UNL     1     -17.637 -26.877  -2.654  1.00  0.00     0.016 C 
BRANCH   3  23
ATOM     23  O   UNL     1     -19.484 -33.304  -0.337  1.00  0.00    -0.381 OA
ATOM     24  H   UNL     1     -18.935 -32.625   0.091  1.00  0.00     0.212 HD
ENDBRANCH   3  23
BRANCH  10  25
ATOM     25  O   UNL     1     -19.962 -28.551  -2.431  1.00  0.00    -0.393 OA
ATOM     26  H   UNL     1     -20.034 -29.263  -3.089  1.00  0.00     0.210 HD
ENDBRANCH  10  25
ENDBRANCH   2   3
BRANCH   2  27
ATOM     27  C   UNL     1     -21.922 -33.646  -1.217  1.00  0.00     0.234 C 
BRANCH  27  28
ATOM     28  O   UNL     1     -22.774 -32.533  -1.384  1.00  0.00    -0.388 OA
ATOM     29  H   UNL     1     -22.849 -32.362  -2.339  1.00  0.00     0.211 HD
ENDBRANCH  27  28
ENDBRANCH   2  27
TORSDOF 5
ENDMDL
MODEL 3
REMARK VINA RESULT:    -6.578      2.237      7.503
REMARK INTER + INTRA:          -8.109
REMARK INTER:                  -7.999
REMARK INTRA:                  -0.110
REMARK UNBOUND:                -0.184
REMARK SMILES C[C@]12CCC(=O)C=C1CC[C@@H]1[C@@H]2[C@@H](O)C[C@@]2(C)[C@H]1CC[C@]2(O)C(=O)CO
REMARK SMILES IDX 24 1 23 2 21 3 16 4 20 5 18 6 15 7 19 8 11 9 13 10 12 11
REMARK SMILES IDX 10 12 2 13 9 14 8 15 3 16 7 17 4 18 5 19 6 20 17 21 1 22
REMARK SMILES IDX 22 23 14 25 25 27 26 28
REMARK H PARENT 22 24 14 26 26 29
ROOT
ATOM      1  O   UNL     1     -15.971 -29.775  10.497  1.00  0.00    -0.294 OA
ATOM      2  C   UNL     1     -14.925 -29.947   9.872  1.00  0.00     0.190 C 
ENDROOT
BRANCH   2   3
ATOM      3  C   UNL     1     -14.927 -30.119   8.382  1.00  0.00     0.131 C 
ATOM      4  C   UNL     1     -15.670 -31.397   7.900  1.00  0.00     0.009 C 
ATOM      5  C   UNL     1     -13.513 -30.250   7.774  1.00  0.00     0.044 C 
ATOM      6  C   UNL     1     -15.136 -31.469   6.452  1.00  0.00     0.002 C 
ATOM      7  C   UNL     1     -17.207 -31.297   7.821  1.00  0.00     0.042 C 
ATOM      8  C   UNL     1     -13.633 -31.266   6.618  1.00  0.00     0.008 C 
ATOM      9  C   UNL     1     -15.638 -32.694   5.673  1.00  0.00    -0.000 C 
ATOM     10  C   UNL     1     -17.849 -32.445   7.012  1.00  0.00     0.119 C 
ATOM     11  C   UNL     1     -17.199 -32.645   5.607  1.00  0.00     0.031 C 
ATOM     12  C   UNL     1     -15.044 -32.705   4.255  1.00  0.00     0.009 C 
ATOM     13  C   UNL     1     -17.816 -33.810   4.729  1.00  0.00    -0.005 C 
ATOM     14  C   UNL     1     -15.585 -33.859   3.424  1.00  0.00     0.032 C 
ATOM     15  C   UNL     1     -17.093 -33.858   3.376  1.00  0.00    -0.060 C 
ATOM     16  C   UNL     1     -19.326 -33.502   4.513  1.00  0.00     0.020 C 
ATOM     17  C   UNL     1     -17.717 -33.936   2.189  1.00  0.00     0.047 C 
ATOM     18  C   UNL     1     -19.955 -34.301   3.382  1.00  0.00     0.081 C 
ATOM     19  C   UNL     1     -19.189 -34.082   2.104  1.00  0.00     0.155 C 
ATOM     20  O   UNL     1     -19.741 -34.097   1.006  1.00  0.00    -0.295 OA
ATOM     21  C   UNL     1     -15.240 -32.608   8.773  1.00  0.00     0.015 C 
ATOM     22  C   UNL     1     -17.676 -35.209   5.371  1.00  0.00     0.016 C 
BRANCH   3  23
ATOM     23  O   UNL     1     -15.549 -28.941   7.878  1.00  0.00    -0.381 OA
ATOM     24  H   UNL     1     -15.072 -28.659   7.079  1.00  0.00     0.212 HD
ENDBRANCH   3  23
BRANCH  10  25
ATOM     25  O   UNL     1     -17.807 -33.642   7.776  1.00  0.00    -0.393 OA
ATOM     26  H   UNL     1     -18.402 -34.284   7.355  1.00  0.00     0.210 HD
ENDBRANCH  10  25
ENDBRANCH   2   3
BRANCH   2  27
ATOM     27  C   UNL     1     -13.572 -29.996  10.550  1.00  0.00     0.234 C 
BRANCH  27  28
ATOM     28  O   UNL     1     -13.283 -28.763  11.176  1.00  0.00    -0.388 OA
ATOM     29  H   UNL     1     -13.819 -28.080  10.736  1.00  0.00     0.211 HD
ENDBRANCH  27  28
ENDBRANCH   2  27
TORSDOF 5
ENDMDL
MODEL 4
REMARK VINA RESULT:    -6.307      1.654      7.157
REMARK INTER + INTRA:          -7.781
REMARK INTER:                  -7.704
REMARK INTRA:                  -0.078
REMARK UNBOUND:                -0.184
REMARK SMILES C[C@]12CCC(=O)C=C1CC[C@@H]1[C@@H]2[C@@H](O)C[C@@]2(C)[C@H]1CC[C@]2(O)C(=O)CO
REMARK SMILES IDX 24 1 23 2 21 3 16 4 20 5 18 6 15 7 19 8 11 9 13 10 12 11
REMARK SMILES IDX 10 12 2 13 9 14 8 15 3 16 7 17 4 18 5 19 6 20 17 21 1 22
REMARK SMILES IDX 22 23 14 25 25 27 26 28
REMARK H PARENT 22 24 14 26 26 29
ROOT
ATOM      1  O   UNL     1     -12.269 -30.886  10.394  1.00  0.00    -0.294 OA
ATOM      2  C   UNL     1     -13.359 -30.318  10.333  1.00  0.00     0.190 C 
ENDROOT
BRANCH   2   3
ATOM      3  C   UNL     1     -14.596 -31.048   9.901  1.00  0.00     0.131 C 
ATOM      4  C   UNL     1     -14.602 -31.434   8.396  1.00  0.00     0.009 C 
ATOM      5  C   UNL     1     -15.893 -30.229  10.089  1.00  0.00     0.044 C 
ATOM      6  C   UNL     1     -16.101 -31.762   8.225  1.00  0.00     0.002 C 
ATOM      7  C   UNL     1     -13.806 -32.701   8.019  1.00  0.00     0.042 C 
ATOM      8  C   UNL     1     -16.801 -30.582   8.891  1.00  0.00     0.008 C 
ATOM      9  C   UNL     1     -16.488 -32.138   6.786  1.00  0.00    -0.000 C 
ATOM     10  C   UNL     1     -14.138 -33.228   6.606  1.00  0.00     0.119 C 
ATOM     11  C   UNL     1     -15.669 -33.398   6.357  1.00  0.00     0.031 C 
ATOM     12  C   UNL     1     -17.995 -32.424   6.695  1.00  0.00     0.009 C 
ATOM     13  C   UNL     1     -16.072 -33.937   4.923  1.00  0.00    -0.005 C 
ATOM     14  C   UNL     1     -18.401 -32.882   5.302  1.00  0.00     0.032 C 
ATOM     15  C   UNL     1     -17.598 -34.075   4.847  1.00  0.00    -0.060 C 
ATOM     16  C   UNL     1     -15.401 -35.326   4.724  1.00  0.00     0.020 C 
ATOM     17  C   UNL     1     -18.234 -35.160   4.373  1.00  0.00     0.047 C 
ATOM     18  C   UNL     1     -16.001 -36.135   3.584  1.00  0.00     0.081 C 
ATOM     19  C   UNL     1     -17.485 -36.293   3.784  1.00  0.00     0.155 C 
ATOM     20  O   UNL     1     -18.087 -37.297   3.408  1.00  0.00    -0.295 OA
ATOM     21  C   UNL     1     -14.139 -30.220   7.546  1.00  0.00     0.015 C 
ATOM     22  C   UNL     1     -15.641 -33.003   3.769  1.00  0.00     0.016 C 
BRANCH   3  23
ATOM     23  O   UNL     1     -14.646 -32.206  10.731  1.00  0.00    -0.381 OA
ATOM     24  H   UNL     1     -14.280 -31.976  11.602  1.00  0.00     0.212 HD
ENDBRANCH   3  23
BRANCH  10  25
ATOM     25  O   UNL     1     -13.547 -32.375   5.635  1.00  0.00    -0.393 OA
ATOM     26  H   UNL     1     -14.185 -31.670   5.431  1.00  0.00     0.210 HD
ENDBRANCH  10  25
ENDBRANCH   2   3
BRANCH   2  27
ATOM     27  C   UNL     1     -13.533 -28.856  10.687  1.00  0.00     0.234 C 
BRANCH  27  28
ATOM     28  O   UNL     1     -12.310 -28.299  11.120  1.00  0.00    -0.388 OA
ATOM     29  H   UNL     1     -12.438 -27.338  11.202  1.00  0.00     0.211 HD
ENDBRANCH  27  28
ENDBRANCH   2  27
TORSDOF 5
ENDMDL
MODEL 5
REMARK VINA RESULT:    -5.954      8.654     11.617
REMARK INTER + INTRA:          -7.356
REMARK INTER:                  -7.213
REMARK INTRA:                  -0.143
REMARK UNBOUND:                -0.184
REMARK SMILES C[C@]12CCC(=O)C=C1CC[C@@H]1[C@@H]2[C@@H](O)C[C@@]2(C)[C@H]1CC[C@]2(O)C(=O)CO
REMARK SMILES IDX 24 1 23 2 21 3 16 4 20 5 18 6 15 7 19 8 11 9 13 10 12 11
REMARK SMILES IDX 10 12 2 13 9 14 8 15 3 16 7 17 4 18 5 19 6 20 17 21 1 22
REMARK SMILES IDX 22 23 14 25 25 27 26 28
REMARK H PARENT 22 24 14 26 26 29
ROOT
ATOM      1  O   UNL     1     -16.207 -26.030  -2.079  1.00  0.00    -0.294 OA
ATOM      2  C   UNL     1     -17.101 -26.221  -1.255  1.00  0.00     0.190 C 
ENDROOT
BRANCH   2   3
ATOM      3  C   UNL     1     -18.350 -26.968  -1.618  1.00  0.00     0.131 C 
ATOM      4  C   UNL     1     -18.236 -28.507  -1.433  1.00  0.00     0.009 C 
ATOM      5  C   UNL     1     -18.765 -26.793  -3.096  1.00  0.00     0.044 C 
ATOM      6  C   UNL     1     -19.467 -28.952  -2.252  1.00  0.00     0.002 C 
ATOM      7  C   UNL     1     -18.424 -29.031   0.005  1.00  0.00     0.042 C 
ATOM      8  C   UNL     1     -19.341 -28.153  -3.545  1.00  0.00     0.008 C 
ATOM      9  C   UNL     1     -19.631 -30.478  -2.335  1.00  0.00    -0.000 C 
ATOM     10  C   UNL     1     -18.656 -30.557   0.070  1.00  0.00     0.119 C 
ATOM     11  C   UNL     1     -19.786 -31.048  -0.888  1.00  0.00     0.031 C 
ATOM     12  C   UNL     1     -20.860 -30.837  -3.185  1.00  0.00     0.009 C 
ATOM     13  C   UNL     1     -20.070 -32.606  -0.866  1.00  0.00    -0.005 C 
ATOM     14  C   UNL     1     -21.104 -32.338  -3.221  1.00  0.00     0.032 C 
ATOM     15  C   UNL     1     -21.219 -32.922  -1.834  1.00  0.00    -0.060 C 
ATOM     16  C   UNL     1     -20.473 -33.001   0.584  1.00  0.00     0.020 C 
ATOM     17  C   UNL     1     -22.270 -33.701  -1.528  1.00  0.00     0.047 C 
ATOM     18  C   UNL     1     -21.149 -34.361   0.679  1.00  0.00     0.081 C 
ATOM     19  C   UNL     1     -22.350 -34.408  -0.229  1.00  0.00     0.155 C 
ATOM     20  O   UNL     1     -23.347 -35.071   0.048  1.00  0.00    -0.295 OA
ATOM     21  C   UNL     1     -16.891 -29.004  -2.029  1.00  0.00     0.015 C 
ATOM     22  C   UNL     1     -18.859 -33.462  -1.301  1.00  0.00     0.016 C 
BRANCH   3  23
ATOM     23  O   UNL     1     -19.361 -26.421  -0.777  1.00  0.00    -0.381 OA
ATOM     24  H   UNL     1     -20.015 -27.117  -0.590  1.00  0.00     0.212 HD
ENDBRANCH   3  23
BRANCH  10  25
ATOM     25  O   UNL     1     -17.432 -31.231  -0.185  1.00  0.00    -0.393 OA
ATOM     26  H   UNL     1     -17.645 -32.101  -0.563  1.00  0.00     0.210 HD
ENDBRANCH  10  25
ENDBRANCH   2   3
BRANCH   2  27
ATOM     27  C   UNL     1     -17.008 -25.725   0.172  1.00  0.00     0.234 C 
BRANCH  27  28
ATOM     28  O   UNL     1     -17.467 -24.393   0.268  1.00  0.00    -0.388 OA
ATOM     29  H   UNL     1     -16.992 -23.971   1.004  1.00  0.00     0.211 HD
ENDBRANCH  27  28
ENDBRANCH   2  27
TORSDOF 5
ENDMDL
MODEL 6
REMARK VINA RESULT:    -5.874      3.796      6.222
REMARK INTER + INTRA:          -7.261
REMARK INTER:                  -7.294
REMARK INTRA:                   0.034
REMARK UNBOUND:                -0.184
REMARK SMILES C[C@]12CCC(=O)C=C1CC[C@@H]1[C@@H]2[C@@H](O)C[C@@]2(C)[C@H]1CC[C@]2(O)C(=O)CO
REMARK SMILES IDX 24 1 23 2 21 3 16 4 20 5 18 6 15 7 19 8 11 9 13 10 12 11
REMARK SMILES IDX 10 12 2 13 9 14 8 15 3 16 7 17 4 18 5 19 6 20 17 21 1 22
REMARK SMILES IDX 22 23 14 25 25 27 26 28
REMARK H PARENT 22 24 14 26 26 29
ROOT
ATOM      1  O   UNL     1     -15.767 -32.186  10.270  1.00  0.00    -0.294 OA
ATOM      2  C   UNL     1     -15.718 -31.364   9.355  1.00  0.00     0.190 C 
ENDROOT
BRANCH   2   3
ATOM      3  C   UNL     1     -14.456 -30.612   9.050  1.00  0.00     0.131 C 
ATOM      4  C   UNL     1     -13.566 -31.293   7.973  1.00  0.00     0.009 C 
ATOM      5  C   UNL     1     -13.522 -30.454  10.271  1.00  0.00     0.044 C 
ATOM      6  C   UNL     1     -12.248 -30.525   8.211  1.00  0.00     0.002 C 
ATOM      7  C   UNL     1     -13.979 -31.057   6.506  1.00  0.00     0.042 C 
ATOM      8  C   UNL     1     -12.082 -30.568   9.727  1.00  0.00     0.008 C 
ATOM      9  C   UNL     1     -11.088 -31.003   7.324  1.00  0.00    -0.000 C 
ATOM     10  C   UNL     1     -12.878 -31.446   5.495  1.00  0.00     0.119 C 
ATOM     11  C   UNL     1     -11.490 -30.814   5.825  1.00  0.00     0.031 C 
ATOM     12  C   UNL     1      -9.811 -30.208   7.639  1.00  0.00     0.009 C 
ATOM     13  C   UNL     1     -10.319 -31.177   4.822  1.00  0.00    -0.005 C 
ATOM     14  C   UNL     1      -8.662 -30.596   6.721  1.00  0.00     0.032 C 
ATOM     15  C   UNL     1      -9.036 -30.460   5.265  1.00  0.00    -0.060 C 
ATOM     16  C   UNL     1     -10.734 -30.695   3.402  1.00  0.00     0.020 C 
ATOM     17  C   UNL     1      -8.234 -29.770   4.437  1.00  0.00     0.047 C 
ATOM     18  C   UNL     1      -9.573 -30.614   2.423  1.00  0.00     0.081 C 
ATOM     19  C   UNL     1      -8.486 -29.731   2.978  1.00  0.00     0.155 C 
ATOM     20  O   UNL     1      -7.770 -29.048   2.250  1.00  0.00    -0.295 OA
ATOM     21  C   UNL     1     -13.454 -32.812   8.277  1.00  0.00     0.015 C 
ATOM     22  C   UNL     1     -10.000 -32.688   4.766  1.00  0.00     0.016 C 
BRANCH   3  23
ATOM     23  O   UNL     1     -14.891 -29.325   8.620  1.00  0.00    -0.381 OA
ATOM     24  H   UNL     1     -15.144 -28.809   9.405  1.00  0.00     0.212 HD
ENDBRANCH   3  23
BRANCH  10  25
ATOM     25  O   UNL     1     -12.795 -32.862   5.411  1.00  0.00    -0.393 OA
ATOM     26  H   UNL     1     -12.569 -33.199   6.294  1.00  0.00     0.210 HD
ENDBRANCH  10  25
ENDBRANCH   2   3
BRANCH   2  27
ATOM     27  C   UNL     1     -16.912 -31.053   8.478  1.00  0.00     0.234 C 
BRANCH  27  28
ATOM     28  O   UNL     1     -17.691 -32.212   8.268  1.00  0.00    -0.388 OA
ATOM     29  H   UNL     1     -17.213 -32.776   7.636  1.00  0.00     0.211 HD
ENDBRANCH  27  28
ENDBRANCH   2  27
TORSDOF 5
ENDMDL
MODEL 7
REMARK VINA RESULT:    -5.860      2.281      7.424
REMARK INTER + INTRA:          -7.243
REMARK INTER:                  -7.180
REMARK INTRA:                  -0.064
REMARK UNBOUND:                -0.184
REMARK SMILES C[C@]12CCC(=O)C=C1CC[C@@H]1[C@@H]2[C@@H](O)C[C@@]2(C)[C@H]1CC[C@]2(O)C(=O)CO
REMARK SMILES IDX 24 1 23 2 21 3 16 4 20 5 18 6 15 7 19 8 11 9 13 10 12 11
REMARK SMILES IDX 10 12 2 13 9 14 8 15 3 16 7 17 4 18 5 19 6 20 17 21 1 22
REMARK SMILES IDX 22 23 14 25 25 27 26 28
REMARK H PARENT 22 24 14 26 26 29
ROOT
ATOM      1  O   UNL     1     -14.211 -31.785  11.196  1.00  0.00    -0.294 OA
ATOM      2  C   UNL     1     -14.380 -30.980  10.281  1.00  0.00     0.190 C 
ENDROOT
BRANCH   2   3
ATOM      3  C   UNL     1     -15.544 -31.098   9.343  1.00  0.00     0.131 C 
ATOM      4  C   UNL     1     -15.378 -32.216   8.275  1.00  0.00     0.009 C 
ATOM      5  C   UNL     1     -15.803 -29.819   8.516  1.00  0.00     0.044 C 
ATOM      6  C   UNL     1     -16.489 -31.793   7.290  1.00  0.00     0.002 C 
ATOM      7  C   UNL     1     -15.696 -33.651   8.743  1.00  0.00     0.042 C 
ATOM      8  C   UNL     1     -16.260 -30.294   7.120  1.00  0.00     0.008 C 
ATOM      9  C   UNL     1     -16.568 -32.678   6.036  1.00  0.00    -0.000 C 
ATOM     10  C   UNL     1     -15.860 -34.647   7.574  1.00  0.00     0.119 C 
ATOM     11  C   UNL     1     -16.853 -34.150   6.477  1.00  0.00     0.031 C 
ATOM     12  C   UNL     1     -17.678 -32.177   5.098  1.00  0.00     0.009 C 
ATOM     13  C   UNL     1     -17.062 -35.131   5.251  1.00  0.00    -0.005 C 
ATOM     14  C   UNL     1     -17.844 -33.079   3.885  1.00  0.00     0.032 C 
ATOM     15  C   UNL     1     -18.081 -34.515   4.282  1.00  0.00    -0.060 C 
ATOM     16  C   UNL     1     -17.602 -36.482   5.802  1.00  0.00     0.020 C 
ATOM     17  C   UNL     1     -19.120 -35.185   3.756  1.00  0.00     0.047 C 
ATOM     18  C   UNL     1     -18.217 -37.373   4.734  1.00  0.00     0.081 C 
ATOM     19  C   UNL     1     -19.308 -36.632   4.005  1.00  0.00     0.155 C 
ATOM     20  O   UNL     1     -20.296 -37.209   3.557  1.00  0.00    -0.295 OA
ATOM     21  C   UNL     1     -13.952 -32.140   7.662  1.00  0.00     0.015 C 
ATOM     22  C   UNL     1     -15.770 -35.398   4.445  1.00  0.00     0.016 C 
BRANCH   3  23
ATOM     23  O   UNL     1     -16.667 -31.352  10.182  1.00  0.00    -0.381 OA
ATOM     24  H   UNL     1     -16.355 -31.422  11.101  1.00  0.00     0.212 HD
ENDBRANCH   3  23
BRANCH  10  25
ATOM     25  O   UNL     1     -14.584 -34.940   7.022  1.00  0.00    -0.393 OA
ATOM     26  H   UNL     1     -13.994 -34.195   7.227  1.00  0.00     0.210 HD
ENDBRANCH  10  25
ENDBRANCH   2   3
BRANCH   2  27
ATOM     27  C   UNL     1     -13.438 -29.820  10.036  1.00  0.00     0.234 C 
BRANCH  27  28
ATOM     28  O   UNL     1     -13.400 -28.963  11.158  1.00  0.00    -0.388 OA
ATOM     29  H   UNL     1     -12.790 -28.234  10.949  1.00  0.00     0.211 HD
ENDBRANCH  27  28
ENDBRANCH   2  27
TORSDOF 5
ENDMDL
MODEL 8
REMARK VINA RESULT:    -5.844      2.513      3.462
REMARK INTER + INTRA:          -7.224
REMARK INTER:                  -7.039
REMARK INTRA:                  -0.185
REMARK UNBOUND:                -0.184
REMARK SMILES C[C@]12CCC(=O)C=C1CC[C@@H]1[C@@H]2[C@@H](O)C[C@@]2(C)[C@H]1CC[C@]2(O)C(=O)CO
REMARK SMILES IDX 24 1 23 2 21 3 16 4 20 5 18 6 15 7 19 8 11 9 13 10 12 11
REMARK SMILES IDX 10 12 2 13 9 14 8 15 3 16 7 17 4 18 5 19 6 20 17 21 1 22
REMARK SMILES IDX 22 23 14 25 25 27 26 28
REMARK H PARENT 22 24 14 26 26 29
ROOT
ATOM      1  O   UNL     1     -11.629 -34.202   1.660  1.00  0.00    -0.294 OA
ATOM      2  C   UNL     1     -11.638 -33.055   2.104  1.00  0.00     0.190 C 
ENDROOT
BRANCH   2   3
ATOM      3  C   UNL     1     -12.842 -32.501   2.808  1.00  0.00     0.131 C 
ATOM      4  C   UNL     1     -12.724 -32.519   4.358  1.00  0.00     0.009 C 
ATOM      5  C   UNL     1     -14.141 -33.285   2.517  1.00  0.00     0.044 C 
ATOM      6  C   UNL     1     -14.207 -32.295   4.727  1.00  0.00     0.002 C 
ATOM      7  C   UNL     1     -11.913 -31.368   4.988  1.00  0.00     0.042 C 
ATOM      8  C   UNL     1     -14.948 -33.284   3.833  1.00  0.00     0.008 C 
ATOM      9  C   UNL     1     -14.474 -32.317   6.240  1.00  0.00    -0.000 C 
ATOM     10  C   UNL     1     -12.129 -31.236   6.511  1.00  0.00     0.119 C 
ATOM     11  C   UNL     1     -13.635 -31.185   6.917  1.00  0.00     0.031 C 
ATOM     12  C   UNL     1     -15.971 -32.113   6.521  1.00  0.00     0.009 C 
ATOM     13  C   UNL     1     -13.920 -31.050   8.469  1.00  0.00    -0.005 C 
ATOM     14  C   UNL     1     -16.263 -32.045   8.013  1.00  0.00     0.032 C 
ATOM     15  C   UNL     1     -15.436 -30.985   8.699  1.00  0.00    -0.060 C 
ATOM     16  C   UNL     1     -13.250 -29.738   8.969  1.00  0.00     0.020 C 
ATOM     17  C   UNL     1     -16.041 -30.081   9.488  1.00  0.00     0.047 C 
ATOM     18  C   UNL     1     -13.759 -29.273  10.325  1.00  0.00     0.081 C 
ATOM     19  C   UNL     1     -15.257 -29.115  10.291  1.00  0.00     0.155 C 
ATOM     20  O   UNL     1     -15.835 -28.264  10.962  1.00  0.00    -0.295 OA
ATOM     21  C   UNL     1     -12.178 -33.897   4.822  1.00  0.00     0.015 C 
ATOM     22  C   UNL     1     -13.383 -32.237   9.302  1.00  0.00     0.016 C 
BRANCH   3  23
ATOM     23  O   UNL     1     -12.974 -31.171   2.317  1.00  0.00    -0.381 OA
ATOM     24  H   UNL     1     -12.307 -30.614   2.753  1.00  0.00     0.212 HD
ENDBRANCH   3  23
BRANCH  10  25
ATOM     25  O   UNL     1     -11.449 -32.292   7.177  1.00  0.00    -0.393 OA
ATOM     26  H   UNL     1     -11.499 -32.121   8.133  1.00  0.00     0.210 HD
ENDBRANCH  10  25
ENDBRANCH   2   3
BRANCH   2  27
ATOM     27  C   UNL     1     -10.450 -32.125   1.977  1.00  0.00     0.234 C 
BRANCH  27  28
ATOM     28  O   UNL     1     -10.611 -31.259   0.874  1.00  0.00    -0.388 OA
ATOM     29  H   UNL     1     -10.834 -31.807   0.101  1.00  0.00     0.211 HD
ENDBRANCH  27  28
ENDBRANCH   2  27
TORSDOF 5
ENDMDL
MODEL 9
REMARK VINA RESULT:    -5.785      8.743      9.739
REMARK INTER + INTRA:          -7.153
REMARK INTER:                  -7.000
REMARK INTRA:                  -0.153
REMARK UNBOUND:                -0.184
REMARK SMILES C[C@]12CCC(=O)C=C1CC[C@@H]1[C@@H]2[C@@H](O)C[C@@]2(C)[C@H]1CC[C@]2(O)C(=O)CO
REMARK SMILES IDX 24 1 23 2 21 3 16 4 20 5 18 6 15 7 19 8 11 9 13 10 12 11
REMARK SMILES IDX 10 12 2 13 9 14 8 15 3 16 7 17 4 18 5 19 6 20 17 21 1 22
REMARK SMILES IDX 22 23 14 25 25 27 26 28
REMARK H PARENT 22 24 14 26 26 29
ROOT
ATOM      1  O   UNL     1     -16.940 -35.597  -2.435  1.00  0.00    -0.294 OA
ATOM      2  C   UNL     1     -17.281 -34.823  -1.541  1.00  0.00     0.190 C 
ENDROOT
BRANCH   2   3
ATOM      3  C   UNL     1     -16.477 -33.597  -1.222  1.00  0.00     0.131 C 
ATOM      4  C   UNL     1     -17.181 -32.268  -1.611  1.00  0.00     0.009 C 
ATOM      5  C   UNL     1     -15.121 -33.540  -1.962  1.00  0.00     0.044 C 
ATOM      6  C   UNL     1     -15.972 -31.310  -1.542  1.00  0.00     0.002 C 
ATOM      7  C   UNL     1     -18.240 -31.748  -0.618  1.00  0.00     0.042 C 
ATOM      8  C   UNL     1     -14.886 -32.055  -2.313  1.00  0.00     0.008 C 
ATOM      9  C   UNL     1     -16.308 -29.865  -1.942  1.00  0.00    -0.000 C 
ATOM     10  C   UNL     1     -18.637 -30.276  -0.869  1.00  0.00     0.119 C 
ATOM     11  C   UNL     1     -17.409 -29.318  -0.977  1.00  0.00     0.031 C 
ATOM     12  C   UNL     1     -15.050 -28.985  -1.871  1.00  0.00     0.009 C 
ATOM     13  C   UNL     1     -17.753 -27.794  -1.234  1.00  0.00    -0.005 C 
ATOM     14  C   UNL     1     -15.361 -27.528  -2.179  1.00  0.00     0.032 C 
ATOM     15  C   UNL     1     -16.449 -26.985  -1.286  1.00  0.00    -0.060 C 
ATOM     16  C   UNL     1     -18.641 -27.295  -0.058  1.00  0.00     0.020 C 
ATOM     17  C   UNL     1     -16.251 -25.833  -0.626  1.00  0.00     0.047 C 
ATOM     18  C   UNL     1     -18.723 -25.780   0.044  1.00  0.00     0.081 C 
ATOM     19  C   UNL     1     -17.340 -25.191   0.146  1.00  0.00     0.155 C 
ATOM     20  O   UNL     1     -17.117 -24.166   0.786  1.00  0.00    -0.295 OA
ATOM     21  C   UNL     1     -17.781 -32.396  -3.038  1.00  0.00     0.015 C 
ATOM     22  C   UNL     1     -18.497 -27.545  -2.566  1.00  0.00     0.016 C 
BRANCH   3  23
ATOM     23  O   UNL     1     -16.245 -33.666   0.182  1.00  0.00    -0.381 OA
ATOM     24  H   UNL     1     -16.232 -34.602   0.446  1.00  0.00     0.212 HD
ENDBRANCH   3  23
BRANCH  10  25
ATOM     25  O   UNL     1     -19.456 -30.200  -2.027  1.00  0.00    -0.393 OA
ATOM     26  H   UNL     1     -18.877 -30.265  -2.805  1.00  0.00     0.210 HD
ENDBRANCH  10  25
ENDBRANCH   2   3
BRANCH   2  27
ATOM     27  C   UNL     1     -18.523 -35.046  -0.704  1.00  0.00     0.234 C 
BRANCH  27  28
ATOM     28  O   UNL     1     -18.182 -35.550   0.570  1.00  0.00    -0.388 OA
ATOM     29  H   UNL     1     -18.589 -36.430   0.656  1.00  0.00     0.211 HD
ENDBRANCH  27  28
ENDBRANCH   2  27
TORSDOF 5
ENDMDL
