MODEL 1
REMARK VINA RESULT:    -8.181      0.000      0.000
REMARK INTER + INTRA:          -9.612
REMARK INTER:                  -9.854
REMARK INTRA:                   0.242
REMARK UNBOUND:                 0.242
REMARK SMILES C[C@]12CCC(=O)C=C1CC[C@@H]1[C@@H]2[C@@H](O)C[C@@]2(C)[C@H]1CC[C@]2(O)C(=O)CO
REMARK SMILES IDX 24 1 23 2 21 3 16 4 20 5 18 6 15 7 19 8 11 9 13 10 12 11
REMARK SMILES IDX 10 12 2 13 9 14 8 15 3 16 7 17 4 18 5 19 6 20 17 21 1 22
REMARK SMILES IDX 22 23 14 25 25 27 26 28
REMARK H PARENT 22 24 14 26 26 29
ROOT
ATOM      1  O   UNL     1       3.203 -19.835  -4.657  1.00  0.00    -0.294 OA
ATOM      2  C   UNL     1       3.937 -18.849  -4.682  1.00  0.00     0.190 C 
ENDROOT
BRANCH   2   3
ATOM      3  C   UNL     1       4.605 -18.342  -3.438  1.00  0.00     0.131 C 
ATOM      4  C   UNL     1       3.740 -18.492  -2.156  1.00  0.00     0.009 C 
ATOM      5  C   UNL     1       4.947 -16.836  -3.492  1.00  0.00     0.044 C 
ATOM      6  C   UNL     1       4.514 -17.543  -1.216  1.00  0.00     0.002 C 
ATOM      7  C   UNL     1       3.736 -19.889  -1.502  1.00  0.00     0.042 C 
ATOM      8  C   UNL     1       4.720 -16.293  -2.065  1.00  0.00     0.008 C 
ATOM      9  C   UNL     1       3.874 -17.399   0.174  1.00  0.00    -0.000 C 
ATOM     10  C   UNL     1       3.166 -19.886  -0.067  1.00  0.00     0.119 C 
ATOM     11  C   UNL     1       3.819 -18.807   0.852  1.00  0.00     0.031 C 
ATOM     12  C   UNL     1       4.687 -16.422   1.038  1.00  0.00     0.009 C 
ATOM     13  C   UNL     1       3.274 -18.754   2.338  1.00  0.00    -0.005 C 
ATOM     14  C   UNL     1       4.132 -16.318   2.450  1.00  0.00     0.032 C 
ATOM     15  C   UNL     1       4.032 -17.669   3.115  1.00  0.00    -0.060 C 
ATOM     16  C   UNL     1       3.521 -20.145   2.990  1.00  0.00     0.020 C 
ATOM     17  C   UNL     1       4.560 -17.847   4.337  1.00  0.00     0.047 C 
ATOM     18  C   UNL     1       3.418 -20.133   4.508  1.00  0.00     0.081 C 
ATOM     19  C   UNL     1       4.361 -19.110   5.084  1.00  0.00     0.155 C 
ATOM     20  O   UNL     1       4.901 -19.267   6.177  1.00  0.00    -0.295 OA
ATOM     21  C   UNL     1       2.290 -18.018  -2.450  1.00  0.00     0.015 C 
ATOM     22  C   UNL     1       1.769 -18.416   2.433  1.00  0.00     0.016 C 
BRANCH   3  23
ATOM     23  O   UNL     1       5.811 -19.095  -3.337  1.00  0.00    -0.381 OA
ATOM     24  H   UNL     1       6.545 -18.545  -3.660  1.00  0.00     0.212 HD
ENDBRANCH   3  23
BRANCH  10  25
ATOM     25  O   UNL     1       1.754 -19.733  -0.121  1.00  0.00    -0.393 OA
ATOM     26  H   UNL     1       1.458 -19.397   0.742  1.00  0.00     0.210 HD
ENDBRANCH  10  25
ENDBRANCH   2   3
BRANCH   2  27
ATOM     27  C   UNL     1       4.221 -18.081  -5.956  1.00  0.00     0.234 C 
BRANCH  27  28
ATOM     28  O   UNL     1       4.021 -18.901  -7.087  1.00  0.00    -0.388 OA
ATOM     29  H   UNL     1       4.469 -19.748  -6.918  1.00  0.00     0.211 HD
ENDBRANCH  27  28
ENDBRANCH   2  27
TORSDOF 5
ENDMDL
MODEL 2
REMARK VINA RESULT:    -8.064      9.959     11.470
REMARK INTER + INTRA:          -9.471
REMARK INTER:                  -9.463
REMARK INTRA:                  -0.008
REMARK UNBOUND:                 0.242
REMARK SMILES C[C@]12CCC(=O)C=C1CC[C@@H]1[C@@H]2[C@@H](O)C[C@@]2(C)[C@H]1CC[C@]2(O)C(=O)CO
REMARK SMILES IDX 24 1 23 2 21 3 16 4 20 5 18 6 15 7 19 8 11 9 13 10 12 11
REMARK SMILES IDX 10 12 2 13 9 14 8 15 3 16 7 17 4 18 5 19 6 20 17 21 1 22
REMARK SMILES IDX 22 23 14 25 25 27 26 28
REMARK H PARENT 22 24 14 26 26 29
ROOT
ATOM      1  O   UNL     1      -1.946 -26.077  -7.100  1.00  0.00    -0.294 OA
ATOM      2  C   UNL     1      -3.033 -26.606  -6.874  1.00  0.00     0.190 C 
ENDROOT
BRANCH   2   3
ATOM      3  C   UNL     1      -4.030 -25.973  -5.949  1.00  0.00     0.131 C 
ATOM      4  C   UNL     1      -3.743 -26.234  -4.445  1.00  0.00     0.009 C 
ATOM      5  C   UNL     1      -5.474 -26.484  -6.155  1.00  0.00     0.044 C 
ATOM      6  C   UNL     1      -5.110 -25.829  -3.851  1.00  0.00     0.002 C 
ATOM      7  C   UNL     1      -2.672 -25.335  -3.794  1.00  0.00     0.042 C 
ATOM      8  C   UNL     1      -6.113 -26.544  -4.752  1.00  0.00     0.008 C 
ATOM      9  C   UNL     1      -5.204 -26.028  -2.330  1.00  0.00    -0.000 C 
ATOM     10  C   UNL     1      -2.687 -25.394  -2.250  1.00  0.00     0.119 C 
ATOM     11  C   UNL     1      -4.104 -25.158  -1.640  1.00  0.00     0.031 C 
ATOM     12  C   UNL     1      -6.598 -25.627  -1.824  1.00  0.00     0.009 C 
ATOM     13  C   UNL     1      -4.183 -25.207  -0.059  1.00  0.00    -0.005 C 
ATOM     14  C   UNL     1      -6.702 -25.730  -0.310  1.00  0.00     0.032 C 
ATOM     15  C   UNL     1      -5.627 -24.930   0.383  1.00  0.00    -0.060 C 
ATOM     16  C   UNL     1      -3.235 -24.108   0.504  1.00  0.00     0.020 C 
ATOM     17  C   UNL     1      -5.966 -24.065   1.353  1.00  0.00     0.047 C 
ATOM     18  C   UNL     1      -3.496 -23.769   1.964  1.00  0.00     0.081 C 
ATOM     19  C   UNL     1      -4.935 -23.367   2.155  1.00  0.00     0.155 C 
ATOM     20  O   UNL     1      -5.271 -22.540   2.999  1.00  0.00    -0.295 OA
ATOM     21  C   UNL     1      -3.404 -27.736  -4.234  1.00  0.00     0.015 C 
ATOM     22  C   UNL     1      -3.777 -26.573   0.539  1.00  0.00     0.016 C 
BRANCH   3  23
ATOM     23  O   UNL     1      -3.977 -24.581  -6.249  1.00  0.00    -0.381 OA
ATOM     24  H   UNL     1      -3.179 -24.411  -6.780  1.00  0.00     0.212 HD
ENDBRANCH   3  23
BRANCH  10  25
ATOM     25  O   UNL     1      -2.137 -26.631  -1.820  1.00  0.00    -0.393 OA
ATOM     26  H   UNL     1      -2.460 -26.802  -0.919  1.00  0.00     0.210 HD
ENDBRANCH  10  25
ENDBRANCH   2   3
BRANCH   2  27
ATOM     27  C   UNL     1      -3.445 -27.919  -7.506  1.00  0.00     0.234 C 
BRANCH  27  28
ATOM     28  O   UNL     1      -3.667 -27.758  -8.891  1.00  0.00    -0.388 OA
ATOM     29  H   UNL     1      -4.451 -27.191  -8.998  1.00  0.00     0.211 HD
ENDBRANCH  27  28
ENDBRANCH   2  27
TORSDOF 5
ENDMDL
MODEL 3
REMARK VINA RESULT:    -7.742      1.789      7.234
REMARK INTER + INTRA:          -9.084
REMARK INTER:                  -9.006
REMARK INTRA:                  -0.078
REMARK UNBOUND:                 0.242
REMARK SMILES C[C@]12CCC(=O)C=C1CC[C@@H]1[C@@H]2[C@@H](O)C[C@@]2(C)[C@H]1CC[C@]2(O)C(=O)CO
REMARK SMILES IDX 24 1 23 2 21 3 16 4 20 5 18 6 15 7 19 8 11 9 13 10 12 11
REMARK SMILES IDX 10 12 2 13 9 14 8 15 3 16 7 17 4 18 5 19 6 20 17 21 1 22
REMARK SMILES IDX 22 23 14 25 25 27 26 28
REMARK H PARENT 22 24 14 26 26 29
ROOT
ATOM      1  O   UNL     1       1.562 -20.744   5.003  1.00  0.00    -0.294 OA
ATOM      2  C   UNL     1       2.674 -20.527   4.523  1.00  0.00     0.190 C 
ENDROOT
BRANCH   2   3
ATOM      3  C   UNL     1       2.999 -20.905   3.108  1.00  0.00     0.131 C 
ATOM      4  C   UNL     1       2.943 -19.714   2.112  1.00  0.00     0.009 C 
ATOM      5  C   UNL     1       2.028 -21.948   2.510  1.00  0.00     0.044 C 
ATOM      6  C   UNL     1       2.911 -20.498   0.782  1.00  0.00     0.002 C 
ATOM      7  C   UNL     1       4.185 -18.800   2.080  1.00  0.00     0.042 C 
ATOM      8  C   UNL     1       1.850 -21.566   1.025  1.00  0.00     0.008 C 
ATOM      9  C   UNL     1       2.789 -19.599  -0.459  1.00  0.00    -0.000 C 
ATOM     10  C   UNL     1       4.222 -17.871   0.846  1.00  0.00     0.119 C 
ATOM     11  C   UNL     1       4.015 -18.630  -0.501  1.00  0.00     0.031 C 
ATOM     12  C   UNL     1       2.739 -20.453  -1.735  1.00  0.00     0.009 C 
ATOM     13  C   UNL     1       4.044 -17.729  -1.804  1.00  0.00    -0.005 C 
ATOM     14  C   UNL     1       2.703 -19.594  -2.990  1.00  0.00     0.032 C 
ATOM     15  C   UNL     1       3.855 -18.622  -3.038  1.00  0.00    -0.060 C 
ATOM     16  C   UNL     1       5.427 -17.019  -1.868  1.00  0.00     0.020 C 
ATOM     17  C   UNL     1       4.620 -18.554  -4.141  1.00  0.00     0.047 C 
ATOM     18  C   UNL     1       5.753 -16.442  -3.237  1.00  0.00     0.081 C 
ATOM     19  C   UNL     1       5.668 -17.519  -4.287  1.00  0.00     0.155 C 
ATOM     20  O   UNL     1       6.390 -17.513  -5.282  1.00  0.00    -0.295 OA
ATOM     21  C   UNL     1       1.654 -18.885   2.366  1.00  0.00     0.015 C 
ATOM     22  C   UNL     1       2.929 -16.659  -1.841  1.00  0.00     0.016 C 
BRANCH   3  23
ATOM     23  O   UNL     1       4.309 -21.463   3.170  1.00  0.00    -0.381 OA
ATOM     24  H   UNL     1       4.592 -21.480   4.101  1.00  0.00     0.212 HD
ENDBRANCH   3  23
BRANCH  10  25
ATOM     25  O   UNL     1       3.266 -16.833   1.008  1.00  0.00    -0.393 OA
ATOM     26  H   UNL     1       2.420 -17.244   1.254  1.00  0.00     0.210 HD
ENDBRANCH  10  25
ENDBRANCH   2   3
BRANCH   2  27
ATOM     27  C   UNL     1       3.785 -19.868   5.313  1.00  0.00     0.234 C 
BRANCH  27  28
ATOM     28  O   UNL     1       3.543 -18.484   5.454  1.00  0.00    -0.388 OA
ATOM     29  H   UNL     1       4.093 -18.023   4.796  1.00  0.00     0.211 HD
ENDBRANCH  27  28
ENDBRANCH   2  27
TORSDOF 5
ENDMDL
MODEL 4
REMARK VINA RESULT:    -7.476     11.267     12.841
REMARK INTER + INTRA:          -8.764
REMARK INTER:                  -8.752
REMARK INTRA:                  -0.012
REMARK UNBOUND:                 0.242
REMARK SMILES C[C@]12CCC(=O)C=C1CC[C@@H]1[C@@H]2[C@@H](O)C[C@@]2(C)[C@H]1CC[C@]2(O)C(=O)CO
REMARK SMILES IDX 24 1 23 2 21 3 16 4 20 5 18 6 15 7 19 8 11 9 13 10 12 11
REMARK SMILES IDX 10 12 2 13 9 14 8 15 3 16 7 17 4 18 5 19 6 20 17 21 1 22
REMARK SMILES IDX 22 23 14 25 25 27 26 28
REMARK H PARENT 22 24 14 26 26 29
ROOT
ATOM      1  O   UNL     1      -4.358 -24.111  -6.638  1.00  0.00    -0.294 OA
ATOM      2  C   UNL     1      -5.220 -24.623  -5.924  1.00  0.00     0.190 C 
ENDROOT
BRANCH   2   3
ATOM      3  C   UNL     1      -5.050 -26.006  -5.368  1.00  0.00     0.131 C 
ATOM      4  C   UNL     1      -4.705 -26.035  -3.853  1.00  0.00     0.009 C 
ATOM      5  C   UNL     1      -3.905 -26.802  -6.034  1.00  0.00     0.044 C 
ATOM      6  C   UNL     1      -4.214 -27.494  -3.733  1.00  0.00     0.002 C 
ATOM      7  C   UNL     1      -5.894 -25.866  -2.885  1.00  0.00     0.042 C 
ATOM      8  C   UNL     1      -3.260 -27.645  -4.913  1.00  0.00     0.008 C 
ATOM      9  C   UNL     1      -3.718 -27.862  -2.325  1.00  0.00    -0.000 C 
ATOM     10  C   UNL     1      -5.553 -26.257  -1.430  1.00  0.00     0.119 C 
ATOM     11  C   UNL     1      -4.891 -27.664  -1.310  1.00  0.00     0.031 C 
ATOM     12  C   UNL     1      -3.225 -29.317  -2.296  1.00  0.00     0.009 C 
ATOM     13  C   UNL     1      -4.517 -28.121   0.160  1.00  0.00    -0.005 C 
ATOM     14  C   UNL     1      -2.805 -29.744  -0.898  1.00  0.00     0.032 C 
ATOM     15  C   UNL     1      -3.906 -29.528   0.111  1.00  0.00    -0.060 C 
ATOM     16  C   UNL     1      -5.823 -28.137   1.005  1.00  0.00     0.020 C 
ATOM     17  C   UNL     1      -4.267 -30.535   0.923  1.00  0.00     0.047 C 
ATOM     18  C   UNL     1      -5.698 -28.919   2.304  1.00  0.00     0.081 C 
ATOM     19  C   UNL     1      -5.240 -30.326   2.020  1.00  0.00     0.155 C 
ATOM     20  O   UNL     1      -5.594 -31.276   2.714  1.00  0.00    -0.295 OA
ATOM     21  C   UNL     1      -3.598 -24.988  -3.552  1.00  0.00     0.015 C 
ATOM     22  C   UNL     1      -3.484 -27.199   0.849  1.00  0.00     0.016 C 
BRANCH   3  23
ATOM     23  O   UNL     1      -6.290 -26.659  -5.627  1.00  0.00    -0.381 OA
ATOM     24  H   UNL     1      -6.110 -27.474  -6.126  1.00  0.00     0.212 HD
ENDBRANCH   3  23
BRANCH  10  25
ATOM     25  O   UNL     1      -4.734 -25.249  -0.852  1.00  0.00    -0.393 OA
ATOM     26  H   UNL     1      -4.140 -24.915  -1.545  1.00  0.00     0.210 HD
ENDBRANCH  10  25
ENDBRANCH   2   3
BRANCH   2  27
ATOM     27  C   UNL     1      -6.501 -23.905  -5.555  1.00  0.00     0.234 C 
BRANCH  27  28
ATOM     28  O   UNL     1      -6.241 -22.553  -5.240  1.00  0.00    -0.388 OA
ATOM     29  H   UNL     1      -7.067 -22.057  -5.376  1.00  0.00     0.211 HD
ENDBRANCH  27  28
ENDBRANCH   2  27
TORSDOF 5
ENDMDL
MODEL 5
REMARK VINA RESULT:    -7.315     10.423     11.929
REMARK INTER + INTRA:          -8.569
REMARK INTER:                  -8.559
REMARK INTRA:                  -0.010
REMARK UNBOUND:                 0.242
REMARK SMILES C[C@]12CCC(=O)C=C1CC[C@@H]1[C@@H]2[C@@H](O)C[C@@]2(C)[C@H]1CC[C@]2(O)C(=O)CO
REMARK SMILES IDX 24 1 23 2 21 3 16 4 20 5 18 6 15 7 19 8 11 9 13 10 12 11
REMARK SMILES IDX 10 12 2 13 9 14 8 15 3 16 7 17 4 18 5 19 6 20 17 21 1 22
REMARK SMILES IDX 22 23 14 25 25 27 26 28
REMARK H PARENT 22 24 14 26 26 29
ROOT
ATOM      1  O   UNL     1      -4.640 -25.612  -6.682  1.00  0.00    -0.294 OA
ATOM      2  C   UNL     1      -4.089 -26.673  -6.389  1.00  0.00     0.190 C 
ENDROOT
BRANCH   2   3
ATOM      3  C   UNL     1      -4.319 -27.331  -5.061  1.00  0.00     0.131 C 
ATOM      4  C   UNL     1      -4.122 -26.381  -3.848  1.00  0.00     0.009 C 
ATOM      5  C   UNL     1      -3.359 -28.510  -4.782  1.00  0.00     0.044 C 
ATOM      6  C   UNL     1      -4.025 -27.429  -2.718  1.00  0.00     0.002 C 
ATOM      7  C   UNL     1      -5.307 -25.452  -3.516  1.00  0.00     0.042 C 
ATOM      8  C   UNL     1      -3.043 -28.458  -3.272  1.00  0.00     0.008 C 
ATOM      9  C   UNL     1      -3.757 -26.818  -1.334  1.00  0.00    -0.000 C 
ATOM     10  C   UNL     1      -5.198 -24.805  -2.117  1.00  0.00     0.119 C 
ATOM     11  C   UNL     1      -4.924 -25.839  -0.981  1.00  0.00     0.031 C 
ATOM     12  C   UNL     1      -3.650 -27.925  -0.273  1.00  0.00     0.009 C 
ATOM     13  C   UNL     1      -4.801 -25.235   0.478  1.00  0.00    -0.005 C 
ATOM     14  C   UNL     1      -3.469 -27.354   1.125  1.00  0.00     0.032 C 
ATOM     15  C   UNL     1      -4.561 -26.375   1.477  1.00  0.00    -0.060 C 
ATOM     16  C   UNL     1      -6.136 -24.507   0.811  1.00  0.00     0.020 C 
ATOM     17  C   UNL     1      -5.231 -26.517   2.633  1.00  0.00     0.047 C 
ATOM     18  C   UNL     1      -6.321 -24.223   2.294  1.00  0.00     0.081 C 
ATOM     19  C   UNL     1      -6.209 -25.501   3.085  1.00  0.00     0.155 C 
ATOM     20  O   UNL     1      -6.848 -25.681   4.119  1.00  0.00    -0.295 OA
ATOM     21  C   UNL     1      -2.816 -25.561  -4.037  1.00  0.00     0.015 C 
ATOM     22  C   UNL     1      -3.632 -24.236   0.637  1.00  0.00     0.016 C 
BRANCH   3  23
ATOM     23  O   UNL     1      -5.657 -27.819  -5.122  1.00  0.00    -0.381 OA
ATOM     24  H   UNL     1      -5.952 -28.021  -4.217  1.00  0.00     0.212 HD
ENDBRANCH   3  23
BRANCH  10  25
ATOM     25  O   UNL     1      -4.205 -23.790  -2.144  1.00  0.00    -0.393 OA
ATOM     26  H   UNL     1      -3.964 -23.634  -3.073  1.00  0.00     0.210 HD
ENDBRANCH  10  25
ENDBRANCH   2   3
BRANCH   2  27
ATOM     27  C   UNL     1      -3.147 -27.386  -7.337  1.00  0.00     0.234 C 
BRANCH  27  28
ATOM     28  O   UNL     1      -3.826 -27.780  -8.511  1.00  0.00    -0.388 OA
ATOM     29  H   UNL     1      -4.022 -28.729  -8.432  1.00  0.00     0.211 HD
ENDBRANCH  27  28
ENDBRANCH   2  27
TORSDOF 5
ENDMDL
MODEL 6
REMARK VINA RESULT:    -7.242     11.435     13.030
REMARK INTER + INTRA:          -8.482
REMARK INTER:                  -8.513
REMARK INTRA:                   0.031
REMARK UNBOUND:                 0.242
REMARK SMILES C[C@]12CCC(=O)C=C1CC[C@@H]1[C@@H]2[C@@H](O)C[C@@]2(C)[C@H]1CC[C@]2(O)C(=O)CO
REMARK SMILES IDX 24 1 23 2 21 3 16 4 20 5 18 6 15 7 19 8 11 9 13 10 12 11
REMARK SMILES IDX 10 12 2 13 9 14 8 15 3 16 7 17 4 18 5 19 6 20 17 21 1 22
REMARK SMILES IDX 22 23 14 25 25 27 26 28
REMARK H PARENT 22 24 14 26 26 29
ROOT
ATOM      1  O   UNL     1      -3.451 -24.872  -6.695  1.00  0.00    -0.294 OA
ATOM      2  C   UNL     1      -3.306 -24.775  -5.477  1.00  0.00     0.190 C 
ENDROOT
BRANCH   2   3
ATOM      3  C   UNL     1      -4.359 -25.261  -4.526  1.00  0.00     0.131 C 
ATOM      4  C   UNL     1      -3.987 -26.585  -3.802  1.00  0.00     0.009 C 
ATOM      5  C   UNL     1      -5.711 -25.569  -5.208  1.00  0.00     0.044 C 
ATOM      6  C   UNL     1      -5.380 -26.983  -3.269  1.00  0.00     0.002 C 
ATOM      7  C   UNL     1      -3.048 -26.449  -2.585  1.00  0.00     0.042 C 
ATOM      8  C   UNL     1      -6.288 -26.803  -4.482  1.00  0.00     0.008 C 
ATOM      9  C   UNL     1      -5.393 -28.328  -2.525  1.00  0.00    -0.000 C 
ATOM     10  C   UNL     1      -3.005 -27.719  -1.708  1.00  0.00     0.119 C 
ATOM     11  C   UNL     1      -4.420 -28.238  -1.305  1.00  0.00     0.031 C 
ATOM     12  C   UNL     1      -6.816 -28.662  -2.050  1.00  0.00     0.009 C 
ATOM     13  C   UNL     1      -4.440 -29.540  -0.404  1.00  0.00    -0.005 C 
ATOM     14  C   UNL     1      -6.854 -29.946  -1.236  1.00  0.00     0.032 C 
ATOM     15  C   UNL     1      -5.894 -29.902  -0.073  1.00  0.00    -0.060 C 
ATOM     16  C   UNL     1      -3.658 -29.232   0.905  1.00  0.00     0.020 C 
ATOM     17  C   UNL     1      -6.333 -30.209   1.159  1.00  0.00     0.047 C 
ATOM     18  C   UNL     1      -3.921 -30.230   2.022  1.00  0.00     0.081 C 
ATOM     19  C   UNL     1      -5.398 -30.317   2.303  1.00  0.00     0.155 C 
ATOM     20  O   UNL     1      -5.832 -30.546   3.430  1.00  0.00    -0.295 OA
ATOM     21  C   UNL     1      -3.412 -27.596  -4.831  1.00  0.00     0.015 C 
ATOM     22  C   UNL     1      -3.807 -30.774  -1.087  1.00  0.00     0.016 C 
BRANCH   3  23
ATOM     23  O   UNL     1      -4.532 -24.196  -3.596  1.00  0.00    -0.381 OA
ATOM     24  H   UNL     1      -4.767 -23.392  -4.090  1.00  0.00     0.212 HD
ENDBRANCH   3  23
BRANCH  10  25
ATOM     25  O   UNL     1      -2.255 -28.726  -2.374  1.00  0.00    -0.393 OA
ATOM     26  H   UNL     1      -2.763 -29.554  -2.327  1.00  0.00     0.210 HD
ENDBRANCH  10  25
ENDBRANCH   2   3
BRANCH   2  27
ATOM     27  C   UNL     1      -2.068 -24.166  -4.853  1.00  0.00     0.234 C 
BRANCH  27  28
ATOM     28  O   UNL     1      -1.020 -24.092  -5.796  1.00  0.00    -0.388 OA
ATOM     29  H   UNL     1      -1.304 -23.486  -6.502  1.00  0.00     0.211 HD
ENDBRANCH  27  28
ENDBRANCH   2  27
TORSDOF 5
ENDMDL
MODEL 7
REMARK VINA RESULT:    -7.094     10.291     13.509
REMARK INTER + INTRA:          -8.304
REMARK INTER:                  -8.317
REMARK INTRA:                   0.013
REMARK UNBOUND:                 0.242
REMARK SMILES C[C@]12CCC(=O)C=C1CC[C@@H]1[C@@H]2[C@@H](O)C[C@@]2(C)[C@H]1CC[C@]2(O)C(=O)CO
REMARK SMILES IDX 24 1 23 2 21 3 16 4 20 5 18 6 15 7 19 8 11 9 13 10 12 11
REMARK SMILES IDX 10 12 2 13 9 14 8 15 3 16 7 17 4 18 5 19 6 20 17 21 1 22
REMARK SMILES IDX 22 23 14 25 25 27 26 28
REMARK H PARENT 22 24 14 26 26 29
ROOT
ATOM      1  O   UNL     1      -4.485 -24.708   3.328  1.00  0.00    -0.294 OA
ATOM      2  C   UNL     1      -4.425 -25.736   2.655  1.00  0.00     0.190 C 
ENDROOT
BRANCH   2   3
ATOM      3  C   UNL     1      -5.242 -25.901   1.408  1.00  0.00     0.131 C 
ATOM      4  C   UNL     1      -4.432 -25.703   0.097  1.00  0.00     0.009 C 
ATOM      5  C   UNL     1      -6.403 -24.888   1.293  1.00  0.00     0.044 C 
ATOM      6  C   UNL     1      -5.599 -25.532  -0.899  1.00  0.00     0.002 C 
ATOM      7  C   UNL     1      -3.598 -26.913  -0.373  1.00  0.00     0.042 C 
ATOM      8  C   UNL     1      -6.514 -24.529  -0.204  1.00  0.00     0.008 C 
ATOM      9  C   UNL     1      -5.142 -25.246  -2.339  1.00  0.00    -0.000 C 
ATOM     10  C   UNL     1      -3.114 -26.787  -1.834  1.00  0.00     0.119 C 
ATOM     11  C   UNL     1      -4.260 -26.438  -2.833  1.00  0.00     0.031 C 
ATOM     12  C   UNL     1      -6.360 -25.064  -3.259  1.00  0.00     0.009 C 
ATOM     13  C   UNL     1      -3.825 -26.295  -4.349  1.00  0.00    -0.005 C 
ATOM     14  C   UNL     1      -5.947 -24.863  -4.709  1.00  0.00     0.032 C 
ATOM     15  C   UNL     1      -5.062 -25.981  -5.202  1.00  0.00    -0.060 C 
ATOM     16  C   UNL     1      -3.197 -27.646  -4.800  1.00  0.00     0.020 C 
ATOM     17  C   UNL     1      -5.365 -26.609  -6.350  1.00  0.00     0.047 C 
ATOM     18  C   UNL     1      -3.096 -27.797  -6.310  1.00  0.00     0.081 C 
ATOM     19  C   UNL     1      -4.450 -27.612  -6.943  1.00  0.00     0.155 C 
ATOM     20  O   UNL     1      -4.776 -28.211  -7.965  1.00  0.00    -0.295 OA
ATOM     21  C   UNL     1      -3.542 -24.436   0.222  1.00  0.00     0.015 C 
ATOM     22  C   UNL     1      -2.803 -25.161  -4.595  1.00  0.00     0.016 C 
BRANCH   3  23
ATOM     23  O   UNL     1      -5.774 -27.220   1.490  1.00  0.00    -0.381 OA
ATOM     24  H   UNL     1      -6.667 -27.216   1.106  1.00  0.00     0.212 HD
ENDBRANCH   3  23
BRANCH  10  25
ATOM     25  O   UNL     1      -2.062 -25.834  -1.901  1.00  0.00    -0.393 OA
ATOM     26  H   UNL     1      -1.690 -25.865  -2.799  1.00  0.00     0.210 HD
ENDBRANCH  10  25
ENDBRANCH   2   3
BRANCH   2  27
ATOM     27  C   UNL     1      -3.530 -26.899   3.029  1.00  0.00     0.234 C 
BRANCH  27  28
ATOM     28  O   UNL     1      -2.431 -26.456   3.797  1.00  0.00    -0.388 OA
ATOM     29  H   UNL     1      -2.307 -27.092   4.523  1.00  0.00     0.211 HD
ENDBRANCH  27  28
ENDBRANCH   2  27
TORSDOF 5
ENDMDL
MODEL 8
REMARK VINA RESULT:    -7.087      9.580     12.764
REMARK INTER + INTRA:          -8.295
REMARK INTER:                  -8.392
REMARK INTRA:                   0.097
REMARK UNBOUND:                 0.242
REMARK SMILES C[C@]12CCC(=O)C=C1CC[C@@H]1[C@@H]2[C@@H](O)C[C@@]2(C)[C@H]1CC[C@]2(O)C(=O)CO
REMARK SMILES IDX 24 1 23 2 21 3 16 4 20 5 18 6 15 7 19 8 11 9 13 10 12 11
REMARK SMILES IDX 10 12 2 13 9 14 8 15 3 16 7 17 4 18 5 19 6 20 17 21 1 22
REMARK SMILES IDX 22 23 14 25 25 27 26 28
REMARK H PARENT 22 24 14 26 26 29
ROOT
ATOM      1  O   UNL     1      -4.327 -22.418   2.480  1.00  0.00    -0.294 OA
ATOM      2  C   UNL     1      -3.819 -23.404   3.012  1.00  0.00     0.190 C 
ENDROOT
BRANCH   2   3
ATOM      3  C   UNL     1      -3.233 -24.517   2.195  1.00  0.00     0.131 C 
ATOM      4  C   UNL     1      -3.994 -24.787   0.867  1.00  0.00     0.009 C 
ATOM      5  C   UNL     1      -3.237 -25.882   2.919  1.00  0.00     0.044 C 
ATOM      6  C   UNL     1      -3.415 -26.176   0.521  1.00  0.00     0.002 C 
ATOM      7  C   UNL     1      -3.662 -23.843  -0.307  1.00  0.00     0.042 C 
ATOM      8  C   UNL     1      -3.525 -26.943   1.835  1.00  0.00     0.008 C 
ATOM      9  C   UNL     1      -4.018 -26.793  -0.751  1.00  0.00    -0.000 C 
ATOM     10  C   UNL     1      -4.163 -24.369  -1.669  1.00  0.00     0.119 C 
ATOM     11  C   UNL     1      -3.732 -25.840  -1.957  1.00  0.00     0.031 C 
ATOM     12  C   UNL     1      -3.409 -28.181  -1.011  1.00  0.00     0.009 C 
ATOM     13  C   UNL     1      -4.218 -26.436  -3.342  1.00  0.00    -0.005 C 
ATOM     14  C   UNL     1      -3.919 -28.788  -2.309  1.00  0.00     0.032 C 
ATOM     15  C   UNL     1      -3.691 -27.871  -3.486  1.00  0.00    -0.060 C 
ATOM     16  C   UNL     1      -3.643 -25.543  -4.479  1.00  0.00     0.020 C 
ATOM     17  C   UNL     1      -3.090 -28.346  -4.589  1.00  0.00     0.047 C 
ATOM     18  C   UNL     1      -3.688 -26.198  -5.851  1.00  0.00     0.081 C 
ATOM     19  C   UNL     1      -2.974 -27.525  -5.816  1.00  0.00     0.155 C 
ATOM     20  O   UNL     1      -2.372 -27.963  -6.793  1.00  0.00    -0.295 OA
ATOM     21  C   UNL     1      -5.523 -24.810   1.140  1.00  0.00     0.015 C 
ATOM     22  C   UNL     1      -5.756 -26.499  -3.483  1.00  0.00     0.016 C 
BRANCH   3  23
ATOM     23  O   UNL     1      -1.887 -24.120   1.946  1.00  0.00    -0.381 OA
ATOM     24  H   UNL     1      -1.462 -24.802   1.398  1.00  0.00     0.212 HD
ENDBRANCH   3  23
BRANCH  10  25
ATOM     25  O   UNL     1      -5.575 -24.220  -1.741  1.00  0.00    -0.393 OA
ATOM     26  H   UNL     1      -5.966 -24.759  -1.034  1.00  0.00     0.210 HD
ENDBRANCH  10  25
ENDBRANCH   2   3
BRANCH   2  27
ATOM     27  C   UNL     1      -3.746 -23.567   4.516  1.00  0.00     0.234 C 
BRANCH  27  28
ATOM     28  O   UNL     1      -2.452 -23.259   4.989  1.00  0.00    -0.388 OA
ATOM     29  H   UNL     1      -2.246 -22.351   4.708  1.00  0.00     0.211 HD
ENDBRANCH  27  28
ENDBRANCH   2  27
TORSDOF 5
ENDMDL
MODEL 9
REMARK VINA RESULT:    -7.009      9.580     10.907
REMARK INTER + INTRA:          -8.201
REMARK INTER:                  -8.162
REMARK INTRA:                  -0.039
REMARK UNBOUND:                 0.242
REMARK SMILES C[C@]12CCC(=O)C=C1CC[C@@H]1[C@@H]2[C@@H](O)C[C@@]2(C)[C@H]1CC[C@]2(O)C(=O)CO
REMARK SMILES IDX 24 1 23 2 21 3 16 4 20 5 18 6 15 7 19 8 11 9 13 10 12 11
REMARK SMILES IDX 10 12 2 13 9 14 8 15 3 16 7 17 4 18 5 19 6 20 17 21 1 22
REMARK SMILES IDX 22 23 14 25 25 27 26 28
REMARK H PARENT 22 24 14 26 26 29
ROOT
ATOM      1  O   UNL     1      -3.935 -23.381  -4.214  1.00  0.00    -0.294 OA
ATOM      2  C   UNL     1      -2.991 -24.118  -3.932  1.00  0.00     0.190 C 
ENDROOT
BRANCH   2   3
ATOM      3  C   UNL     1      -2.534 -24.290  -2.514  1.00  0.00     0.131 C 
ATOM      4  C   UNL     1      -3.417 -25.262  -1.684  1.00  0.00     0.009 C 
ATOM      5  C   UNL     1      -2.544 -22.977  -1.699  1.00  0.00     0.044 C 
ATOM      6  C   UNL     1      -2.940 -24.888  -0.263  1.00  0.00     0.002 C 
ATOM      7  C   UNL     1      -3.139 -26.766  -1.883  1.00  0.00     0.042 C 
ATOM      8  C   UNL     1      -2.976 -23.363  -0.268  1.00  0.00     0.008 C 
ATOM      9  C   UNL     1      -3.678 -25.644   0.852  1.00  0.00    -0.000 C 
ATOM     10  C   UNL     1      -3.780 -27.652  -0.792  1.00  0.00     0.119 C 
ATOM     11  C   UNL     1      -3.449 -27.178   0.658  1.00  0.00     0.031 C 
ATOM     12  C   UNL     1      -3.165 -25.198   2.230  1.00  0.00     0.009 C 
ATOM     13  C   UNL     1      -4.080 -28.048   1.821  1.00  0.00    -0.005 C 
ATOM     14  C   UNL     1      -3.813 -25.986   3.358  1.00  0.00     0.032 C 
ATOM     15  C   UNL     1      -3.640 -27.474   3.175  1.00  0.00    -0.060 C 
ATOM     16  C   UNL     1      -3.560 -29.506   1.668  1.00  0.00     0.020 C 
ATOM     17  C   UNL     1      -3.159 -28.214   4.188  1.00  0.00     0.047 C 
ATOM     18  C   UNL     1      -3.754 -30.356   2.915  1.00  0.00     0.081 C 
ATOM     19  C   UNL     1      -3.108 -29.692   4.102  1.00  0.00     0.155 C 
ATOM     20  O   UNL     1      -2.613 -30.342   5.020  1.00  0.00    -0.295 OA
ATOM     21  C   UNL     1      -4.916 -24.942  -1.931  1.00  0.00     0.015 C 
ATOM     22  C   UNL     1      -5.626 -28.063   1.813  1.00  0.00     0.016 C 
BRANCH   3  23
ATOM     23  O   UNL     1      -1.196 -24.770  -2.616  1.00  0.00    -0.381 OA
ATOM     24  H   UNL     1      -0.651 -24.304  -1.958  1.00  0.00     0.212 HD
ENDBRANCH   3  23
BRANCH  10  25
ATOM     25  O   UNL     1      -5.183 -27.720  -1.005  1.00  0.00    -0.393 OA
ATOM     26  H   UNL     1      -5.331 -27.942  -1.940  1.00  0.00     0.210 HD
ENDBRANCH  10  25
ENDBRANCH   2   3
BRANCH   2  27
ATOM     27  C   UNL     1      -2.229 -24.899  -4.981  1.00  0.00     0.234 C 
BRANCH  27  28
ATOM     28  O   UNL     1      -1.251 -24.086  -5.596  1.00  0.00    -0.388 OA
ATOM     29  H   UNL     1      -1.197 -24.350  -6.531  1.00  0.00     0.211 HD
ENDBRANCH  27  28
ENDBRANCH   2  27
TORSDOF 5
ENDMDL
