MODEL 1
REMARK VINA RESULT:    -5.922      0.000      0.000
REMARK INTER + INTRA:          -7.316
REMARK INTER:                  -7.134
REMARK INTRA:                  -0.183
REMARK UNBOUND:                -0.183
REMARK SMILES C[C@]12CCC(=O)C=C1CC[C@@H]1[C@@H]2[C@@H](O)C[C@@]2(C)[C@H]1CC[C@]2(O)C(=O)CO
REMARK SMILES IDX 24 1 23 2 21 3 16 4 20 5 18 6 15 7 19 8 11 9 13 10 12 11
REMARK SMILES IDX 10 12 2 13 9 14 8 15 3 16 7 17 4 18 5 19 6 20 17 21 1 22
REMARK SMILES IDX 22 23 14 25 25 27 26 28
REMARK H PARENT 22 24 14 26 26 29
ROOT
ATOM      1  O   UNL     1      -9.558  14.935  -3.642  1.00  0.00    -0.294 OA
ATOM      2  C   UNL     1     -10.203  15.187  -2.625  1.00  0.00     0.190 C 
ENDROOT
BRANCH   2   3
ATOM      3  C   UNL     1     -11.109  16.380  -2.552  1.00  0.00     0.131 C 
ATOM      4  C   UNL     1     -12.621  16.023  -2.595  1.00  0.00     0.009 C 
ATOM      5  C   UNL     1     -10.919  17.371  -3.723  1.00  0.00     0.044 C 
ATOM      6  C   UNL     1     -13.202  17.418  -2.913  1.00  0.00     0.002 C 
ATOM      7  C   UNL     1     -13.243  15.556  -1.263  1.00  0.00     0.042 C 
ATOM      8  C   UNL     1     -12.324  17.915  -4.058  1.00  0.00     0.008 C 
ATOM      9  C   UNL     1     -14.728  17.422  -3.093  1.00  0.00    -0.000 C 
ATOM     10  C   UNL     1     -14.788  15.562  -1.280  1.00  0.00     0.119 C 
ATOM     11  C   UNL     1     -15.392  16.915  -1.771  1.00  0.00     0.031 C 
ATOM     12  C   UNL     1     -15.223  18.837  -3.430  1.00  0.00     0.009 C 
ATOM     13  C   UNL     1     -16.974  16.983  -1.810  1.00  0.00    -0.005 C 
ATOM     14  C   UNL     1     -16.739  18.897  -3.532  1.00  0.00     0.032 C 
ATOM     15  C   UNL     1     -17.407  18.377  -2.283  1.00  0.00    -0.060 C 
ATOM     16  C   UNL     1     -17.503  16.721  -0.370  1.00  0.00     0.020 C 
ATOM     17  C   UNL     1     -18.351  19.118  -1.679  1.00  0.00     0.047 C 
ATOM     18  C   UNL     1     -18.951  17.138  -0.169  1.00  0.00     0.081 C 
ATOM     19  C   UNL     1     -19.131  18.588  -0.537  1.00  0.00     0.155 C 
ATOM     20  O   UNL     1     -19.950  19.305   0.032  1.00  0.00    -0.295 OA
ATOM     21  C   UNL     1     -12.877  14.981  -3.718  1.00  0.00     0.015 C 
ATOM     22  C   UNL     1     -17.612  15.956  -2.773  1.00  0.00     0.016 C 
BRANCH   3  23
ATOM     23  O   UNL     1     -10.767  17.027  -1.329  1.00  0.00    -0.381 OA
ATOM     24  H   UNL     1     -10.197  16.429  -0.815  1.00  0.00     0.212 HD
ENDBRANCH   3  23
BRANCH  10  25
ATOM     25  O   UNL     1     -15.255  14.473  -2.064  1.00  0.00    -0.393 OA
ATOM     26  H   UNL     1     -15.740  14.840  -2.823  1.00  0.00     0.210 HD
ENDBRANCH  10  25
ENDBRANCH   2   3
BRANCH   2  27
ATOM     27  C   UNL     1     -10.133  14.322  -1.384  1.00  0.00     0.234 C 
BRANCH  27  28
ATOM     28  O   UNL     1      -9.092  14.753  -0.533  1.00  0.00    -0.388 OA
ATOM     29  H   UNL     1      -8.704  13.961  -0.122  1.00  0.00     0.211 HD
ENDBRANCH  27  28
ENDBRANCH   2  27
TORSDOF 5
ENDMDL
MODEL 2
REMARK VINA RESULT:    -5.658     11.373     13.730
REMARK INTER + INTRA:          -6.998
REMARK INTER:                  -6.812
REMARK INTRA:                  -0.186
REMARK UNBOUND:                -0.183
REMARK SMILES C[C@]12CCC(=O)C=C1CC[C@@H]1[C@@H]2[C@@H](O)C[C@@]2(C)[C@H]1CC[C@]2(O)C(=O)CO
REMARK SMILES IDX 24 1 23 2 21 3 16 4 20 5 18 6 15 7 19 8 11 9 13 10 12 11
REMARK SMILES IDX 10 12 2 13 9 14 8 15 3 16 7 17 4 18 5 19 6 20 17 21 1 22
REMARK SMILES IDX 22 23 14 25 25 27 26 28
REMARK H PARENT 22 24 14 26 26 29
ROOT
ATOM      1  O   UNL     1     -14.085  25.535  -1.437  1.00  0.00    -0.294 OA
ATOM      2  C   UNL     1     -13.067  25.262  -0.803  1.00  0.00     0.190 C 
ENDROOT
BRANCH   2   3
ATOM      3  C   UNL     1     -11.705  25.601  -1.332  1.00  0.00     0.131 C 
ATOM      4  C   UNL     1     -11.101  26.897  -0.724  1.00  0.00     0.009 C 
ATOM      5  C   UNL     1     -11.679  25.849  -2.857  1.00  0.00     0.044 C 
ATOM      6  C   UNL     1      -9.967  27.151  -1.741  1.00  0.00     0.002 C 
ATOM      7  C   UNL     1     -10.449  26.752   0.667  1.00  0.00     0.042 C 
ATOM      8  C   UNL     1     -10.659  26.984  -3.091  1.00  0.00     0.008 C 
ATOM      9  C   UNL     1      -9.173  28.438  -1.469  1.00  0.00    -0.000 C 
ATOM     10  C   UNL     1      -9.568  27.960   1.053  1.00  0.00     0.119 C 
ATOM     11  C   UNL     1      -8.529  28.341  -0.048  1.00  0.00     0.031 C 
ATOM     12  C   UNL     1      -8.084  28.630  -2.537  1.00  0.00     0.009 C 
ATOM     13  C   UNL     1      -7.595  29.574   0.291  1.00  0.00    -0.005 C 
ATOM     14  C   UNL     1      -7.222  29.849  -2.252  1.00  0.00     0.032 C 
ATOM     15  C   UNL     1      -6.618  29.801  -0.870  1.00  0.00    -0.060 C 
ATOM     16  C   UNL     1      -6.808  29.239   1.591  1.00  0.00     0.020 C 
ATOM     17  C   UNL     1      -5.297  29.990  -0.718  1.00  0.00     0.047 C 
ATOM     18  C   UNL     1      -5.602  30.137   1.822  1.00  0.00     0.081 C 
ATOM     19  C   UNL     1      -4.685  30.092   0.627  1.00  0.00     0.155 C 
ATOM     20  O   UNL     1      -3.467  30.210   0.740  1.00  0.00    -0.295 OA
ATOM     21  C   UNL     1     -12.178  28.017  -0.713  1.00  0.00     0.015 C 
ATOM     22  C   UNL     1      -8.369  30.896   0.500  1.00  0.00     0.016 C 
BRANCH   3  23
ATOM     23  O   UNL     1     -10.900  24.465  -1.027  1.00  0.00    -0.381 OA
ATOM     24  H   UNL     1     -10.654  24.030  -1.861  1.00  0.00     0.212 HD
ENDBRANCH   3  23
BRANCH  10  25
ATOM     25  O   UNL     1     -10.400  29.064   1.383  1.00  0.00    -0.393 OA
ATOM     26  H   UNL     1     -10.028  29.490   2.174  1.00  0.00     0.210 HD
ENDBRANCH  10  25
ENDBRANCH   2   3
BRANCH   2  27
ATOM     27  C   UNL     1     -13.110  24.572   0.544  1.00  0.00     0.234 C 
BRANCH  27  28
ATOM     28  O   UNL     1     -12.888  23.185   0.401  1.00  0.00    -0.388 OA
ATOM     29  H   UNL     1     -13.714  22.788   0.075  1.00  0.00     0.211 HD
ENDBRANCH  27  28
ENDBRANCH   2  27
TORSDOF 5
ENDMDL
MODEL 3
REMARK VINA RESULT:    -5.595      2.777      6.936
REMARK INTER + INTRA:          -6.922
REMARK INTER:                  -6.731
REMARK INTRA:                  -0.191
REMARK UNBOUND:                -0.183
REMARK SMILES C[C@]12CCC(=O)C=C1CC[C@@H]1[C@@H]2[C@@H](O)C[C@@]2(C)[C@H]1CC[C@]2(O)C(=O)CO
REMARK SMILES IDX 24 1 23 2 21 3 16 4 20 5 18 6 15 7 19 8 11 9 13 10 12 11
REMARK SMILES IDX 10 12 2 13 9 14 8 15 3 16 7 17 4 18 5 19 6 20 17 21 1 22
REMARK SMILES IDX 22 23 14 25 25 27 26 28
REMARK H PARENT 22 24 14 26 26 29
ROOT
ATOM      1  O   UNL     1     -18.582  14.330  -5.471  1.00  0.00    -0.294 OA
ATOM      2  C   UNL     1     -18.280  14.278  -4.280  1.00  0.00     0.190 C 
ENDROOT
BRANCH   2   3
ATOM      3  C   UNL     1     -16.965  13.713  -3.833  1.00  0.00     0.131 C 
ATOM      4  C   UNL     1     -15.873  14.791  -3.583  1.00  0.00     0.009 C 
ATOM      5  C   UNL     1     -16.324  12.754  -4.861  1.00  0.00     0.044 C 
ATOM      6  C   UNL     1     -14.623  13.884  -3.557  1.00  0.00     0.002 C 
ATOM      7  C   UNL     1     -15.941  15.522  -2.227  1.00  0.00     0.042 C 
ATOM      8  C   UNL     1     -14.802  12.999  -4.787  1.00  0.00     0.008 C 
ATOM      9  C   UNL     1     -13.306  14.657  -3.384  1.00  0.00    -0.000 C 
ATOM     10  C   UNL     1     -14.652  16.303  -1.893  1.00  0.00     0.119 C 
ATOM     11  C   UNL     1     -13.358  15.443  -2.033  1.00  0.00     0.031 C 
ATOM     12  C   UNL     1     -12.113  13.688  -3.393  1.00  0.00     0.009 C 
ATOM     13  C   UNL     1     -12.001  16.190  -1.703  1.00  0.00    -0.005 C 
ATOM     14  C   UNL     1     -10.798  14.408  -3.139  1.00  0.00     0.032 C 
ATOM     15  C   UNL     1     -10.833  15.207  -1.860  1.00  0.00    -0.060 C 
ATOM     16  C   UNL     1     -12.076  16.698  -0.234  1.00  0.00     0.020 C 
ATOM     17  C   UNL     1      -9.849  15.056  -0.957  1.00  0.00     0.047 C 
ATOM     18  C   UNL     1     -10.723  17.079   0.348  1.00  0.00     0.081 C 
ATOM     19  C   UNL     1      -9.767  15.920   0.243  1.00  0.00     0.155 C 
ATOM     20  O   UNL     1      -8.889  15.725   1.080  1.00  0.00    -0.295 OA
ATOM     21  C   UNL     1     -15.868  15.807  -4.758  1.00  0.00     0.015 C 
ATOM     22  C   UNL     1     -11.714  17.390  -2.634  1.00  0.00     0.016 C 
BRANCH   3  23
ATOM     23  O   UNL     1     -17.261  12.994  -2.639  1.00  0.00    -0.381 OA
ATOM     24  H   UNL     1     -16.549  12.349  -2.484  1.00  0.00     0.212 HD
ENDBRANCH   3  23
BRANCH  10  25
ATOM     25  O   UNL     1     -14.586  17.471  -2.699  1.00  0.00    -0.393 OA
ATOM     26  H   UNL     1     -15.341  18.037  -2.464  1.00  0.00     0.210 HD
ENDBRANCH  10  25
ENDBRANCH   2   3
BRANCH   2  27
ATOM     27  C   UNL     1     -19.203  14.773  -3.186  1.00  0.00     0.234 C 
BRANCH  27  28
ATOM     28  O   UNL     1     -20.034  13.729  -2.724  1.00  0.00    -0.388 OA
ATOM     29  H   UNL     1     -20.098  13.068  -3.436  1.00  0.00     0.211 HD
ENDBRANCH  27  28
ENDBRANCH   2  27
TORSDOF 5
ENDMDL
MODEL 4
REMARK VINA RESULT:    -5.539     10.757     13.167
REMARK INTER + INTRA:          -6.854
REMARK INTER:                  -6.659
REMARK INTRA:                  -0.195
REMARK UNBOUND:                -0.183
REMARK SMILES C[C@]12CCC(=O)C=C1CC[C@@H]1[C@@H]2[C@@H](O)C[C@@]2(C)[C@H]1CC[C@]2(O)C(=O)CO
REMARK SMILES IDX 24 1 23 2 21 3 16 4 20 5 18 6 15 7 19 8 11 9 13 10 12 11
REMARK SMILES IDX 10 12 2 13 9 14 8 15 3 16 7 17 4 18 5 19 6 20 17 21 1 22
REMARK SMILES IDX 22 23 14 25 25 27 26 28
REMARK H PARENT 22 24 14 26 26 29
ROOT
ATOM      1  O   UNL     1     -14.764  24.960   0.555  1.00  0.00    -0.294 OA
ATOM      2  C   UNL     1     -13.615  24.795   0.963  1.00  0.00     0.190 C 
ENDROOT
BRANCH   2   3
ATOM      3  C   UNL     1     -12.432  24.979   0.058  1.00  0.00     0.131 C 
ATOM      4  C   UNL     1     -11.763  26.376   0.178  1.00  0.00     0.009 C 
ATOM      5  C   UNL     1     -12.778  24.850  -1.442  1.00  0.00     0.044 C 
ATOM      6  C   UNL     1     -10.914  26.362  -1.111  1.00  0.00     0.002 C 
ATOM      7  C   UNL     1     -10.796  26.564   1.365  1.00  0.00     0.042 C 
ATOM      8  C   UNL     1     -11.895  25.882  -2.177  1.00  0.00     0.008 C 
ATOM      9  C   UNL     1     -10.138  27.667  -1.351  1.00  0.00    -0.000 C 
ATOM     10  C   UNL     1      -9.906  27.819   1.231  1.00  0.00     0.119 C 
ATOM     11  C   UNL     1      -9.174  27.909  -0.144  1.00  0.00     0.031 C 
ATOM     12  C   UNL     1      -9.341  27.581  -2.663  1.00  0.00     0.009 C 
ATOM     13  C   UNL     1      -8.245  29.176  -0.342  1.00  0.00    -0.005 C 
ATOM     14  C   UNL     1      -8.493  28.823  -2.892  1.00  0.00     0.032 C 
ATOM     15  C   UNL     1      -7.580  29.102  -1.724  1.00  0.00    -0.060 C 
ATOM     16  C   UNL     1      -7.159  29.155   0.772  1.00  0.00     0.020 C 
ATOM     17  C   UNL     1      -6.270  29.306  -1.941  1.00  0.00     0.047 C 
ATOM     18  C   UNL     1      -5.976  30.068   0.487  1.00  0.00     0.081 C 
ATOM     19  C   UNL     1      -5.365  29.723  -0.846  1.00  0.00     0.155 C 
ATOM     20  O   UNL     1      -4.161  29.851  -1.060  1.00  0.00    -0.295 OA
ATOM     21  C   UNL     1     -12.858  27.478   0.179  1.00  0.00     0.015 C 
ATOM     22  C   UNL     1      -9.008  30.518  -0.275  1.00  0.00     0.016 C 
BRANCH   3  23
ATOM     23  O   UNL     1     -11.527  23.941   0.423  1.00  0.00    -0.381 OA
ATOM     24  H   UNL     1     -11.844  23.107   0.037  1.00  0.00     0.212 HD
ENDBRANCH   3  23
BRANCH  10  25
ATOM     25  O   UNL     1     -10.687  28.980   1.478  1.00  0.00    -0.393 OA
ATOM     26  H   UNL     1     -10.894  29.002   2.427  1.00  0.00     0.210 HD
ENDBRANCH  10  25
ENDBRANCH   2   3
BRANCH   2  27
ATOM     27  C   UNL     1     -13.310  24.400   2.392  1.00  0.00     0.234 C 
BRANCH  27  28
ATOM     28  O   UNL     1     -13.329  22.995   2.536  1.00  0.00    -0.388 OA
ATOM     29  H   UNL     1     -12.406  22.687   2.525  1.00  0.00     0.211 HD
ENDBRANCH  27  28
ENDBRANCH   2  27
TORSDOF 5
ENDMDL
MODEL 5
REMARK VINA RESULT:    -5.508      3.784      6.682
REMARK INTER + INTRA:          -6.818
REMARK INTER:                  -6.639
REMARK INTRA:                  -0.180
REMARK UNBOUND:                -0.183
REMARK SMILES C[C@]12CCC(=O)C=C1CC[C@@H]1[C@@H]2[C@@H](O)C[C@@]2(C)[C@H]1CC[C@]2(O)C(=O)CO
REMARK SMILES IDX 24 1 23 2 21 3 16 4 20 5 18 6 15 7 19 8 11 9 13 10 12 11
REMARK SMILES IDX 10 12 2 13 9 14 8 15 3 16 7 17 4 18 5 19 6 20 17 21 1 22
REMARK SMILES IDX 22 23 14 25 25 27 26 28
REMARK H PARENT 22 24 14 26 26 29
ROOT
ATOM      1  O   UNL     1     -14.283  19.215  -9.050  1.00  0.00    -0.294 OA
ATOM      2  C   UNL     1     -13.174  19.084  -8.532  1.00  0.00     0.190 C 
ENDROOT
BRANCH   2   3
ATOM      3  C   UNL     1     -12.967  19.310  -7.064  1.00  0.00     0.131 C 
ATOM      4  C   UNL     1     -12.790  18.000  -6.247  1.00  0.00     0.009 C 
ATOM      5  C   UNL     1     -14.150  20.029  -6.378  1.00  0.00     0.044 C 
ATOM      6  C   UNL     1     -13.017  18.556  -4.824  1.00  0.00     0.002 C 
ATOM      7  C   UNL     1     -11.384  17.368  -6.278  1.00  0.00     0.042 C 
ATOM      8  C   UNL     1     -14.276  19.405  -4.972  1.00  0.00     0.008 C 
ATOM      9  C   UNL     1     -12.972  17.479  -3.729  1.00  0.00    -0.000 C 
ATOM     10  C   UNL     1     -11.176  16.297  -5.185  1.00  0.00     0.119 C 
ATOM     11  C   UNL     1     -11.569  16.790  -3.758  1.00  0.00     0.031 C 
ATOM     12  C   UNL     1     -13.230  18.108  -2.351  1.00  0.00     0.009 C 
ATOM     13  C   UNL     1     -11.378  15.734  -2.593  1.00  0.00    -0.005 C 
ATOM     14  C   UNL     1     -13.110  17.086  -1.231  1.00  0.00     0.032 C 
ATOM     15  C   UNL     1     -11.778  16.377  -1.258  1.00  0.00    -0.060 C 
ATOM     16  C   UNL     1      -9.877  15.324  -2.557  1.00  0.00     0.020 C 
ATOM     17  C   UNL     1     -11.041  16.308  -0.137  1.00  0.00     0.047 C 
ATOM     18  C   UNL     1      -9.465  14.633  -1.266  1.00  0.00     0.081 C 
ATOM     19  C   UNL     1      -9.800  15.503  -0.082  1.00  0.00     0.155 C 
ATOM     20  O   UNL     1      -9.115  15.501   0.939  1.00  0.00    -0.295 OA
ATOM     21  C   UNL     1     -13.867  16.968  -6.681  1.00  0.00     0.015 C 
ATOM     22  C   UNL     1     -12.240  14.462  -2.764  1.00  0.00     0.016 C 
BRANCH   3  23
ATOM     23  O   UNL     1     -11.805  20.131  -6.980  1.00  0.00    -0.381 OA
ATOM     24  H   UNL     1     -11.089  19.609  -6.579  1.00  0.00     0.212 HD
ENDBRANCH   3  23
BRANCH  10  25
ATOM     25  O   UNL     1     -11.886  15.118  -5.539  1.00  0.00    -0.393 OA
ATOM     26  H   UNL     1     -11.382  14.666  -6.236  1.00  0.00     0.210 HD
ENDBRANCH  10  25
ENDBRANCH   2   3
BRANCH   2  27
ATOM     27  C   UNL     1     -11.948  18.689  -9.329  1.00  0.00     0.234 C 
BRANCH  27  28
ATOM     28  O   UNL     1     -11.180  19.827  -9.658  1.00  0.00    -0.388 OA
ATOM     29  H   UNL     1     -11.779  20.594  -9.662  1.00  0.00     0.211 HD
ENDBRANCH  27  28
ENDBRANCH   2  27
TORSDOF 5
ENDMDL
MODEL 6
REMARK VINA RESULT:    -5.405     10.680     12.246
REMARK INTER + INTRA:          -6.693
REMARK INTER:                  -6.645
REMARK INTRA:                  -0.048
REMARK UNBOUND:                -0.183
REMARK SMILES C[C@]12CCC(=O)C=C1CC[C@@H]1[C@@H]2[C@@H](O)C[C@@]2(C)[C@H]1CC[C@]2(O)C(=O)CO
REMARK SMILES IDX 24 1 23 2 21 3 16 4 20 5 18 6 15 7 19 8 11 9 13 10 12 11
REMARK SMILES IDX 10 12 2 13 9 14 8 15 3 16 7 17 4 18 5 19 6 20 17 21 1 22
REMARK SMILES IDX 22 23 14 25 25 27 26 28
REMARK H PARENT 22 24 14 26 26 29
ROOT
ATOM      1  O   UNL     1     -10.929  22.698   2.508  1.00  0.00    -0.294 OA
ATOM      2  C   UNL     1     -11.353  23.100   1.425  1.00  0.00     0.190 C 
ENDROOT
BRANCH   2   3
ATOM      3  C   UNL     1     -12.269  24.285   1.338  1.00  0.00     0.131 C 
ATOM      4  C   UNL     1     -11.537  25.623   1.045  1.00  0.00     0.009 C 
ATOM      5  C   UNL     1     -13.050  24.557   2.643  1.00  0.00     0.044 C 
ATOM      6  C   UNL     1     -12.658  26.614   1.426  1.00  0.00     0.002 C 
ATOM      7  C   UNL     1     -11.171  25.886  -0.431  1.00  0.00     0.042 C 
ATOM      8  C   UNL     1     -13.150  26.092   2.773  1.00  0.00     0.008 C 
ATOM      9  C   UNL     1     -12.241  28.089   1.310  1.00  0.00    -0.000 C 
ATOM     10  C   UNL     1     -10.781  27.354  -0.708  1.00  0.00     0.119 C 
ATOM     11  C   UNL     1     -11.826  28.380  -0.169  1.00  0.00     0.031 C 
ATOM     12  C   UNL     1     -13.400  29.007   1.730  1.00  0.00     0.009 C 
ATOM     13  C   UNL     1     -11.481  29.905  -0.423  1.00  0.00    -0.005 C 
ATOM     14  C   UNL     1     -13.053  30.476   1.548  1.00  0.00     0.032 C 
ATOM     15  C   UNL     1     -12.611  30.778   0.137  1.00  0.00    -0.060 C 
ATOM     16  C   UNL     1     -11.354  30.120  -1.959  1.00  0.00     0.020 C 
ATOM     17  C   UNL     1     -13.183  31.792  -0.533  1.00  0.00     0.047 C 
ATOM     18  C   UNL     1     -11.417  31.581  -2.377  1.00  0.00     0.081 C 
ATOM     19  C   UNL     1     -12.684  32.213  -1.862  1.00  0.00     0.155 C 
ATOM     20  O   UNL     1     -13.259  33.108  -2.478  1.00  0.00    -0.295 OA
ATOM     21  C   UNL     1     -10.281  25.739   1.952  1.00  0.00     0.015 C 
ATOM     22  C   UNL     1     -10.171  30.363   0.258  1.00  0.00     0.016 C 
BRANCH   3  23
ATOM     23  O   UNL     1     -13.188  23.961   0.298  1.00  0.00    -0.381 OA
ATOM     24  H   UNL     1     -13.606  24.784  -0.009  1.00  0.00     0.212 HD
ENDBRANCH   3  23
BRANCH  10  25
ATOM     25  O   UNL     1      -9.487  27.606  -0.177  1.00  0.00    -0.393 OA
ATOM     26  H   UNL     1      -8.835  27.259  -0.809  1.00  0.00     0.210 HD
ENDBRANCH  10  25
ENDBRANCH   2   3
BRANCH   2  27
ATOM     27  C   UNL     1     -10.985  22.440   0.113  1.00  0.00     0.234 C 
BRANCH  27  28
ATOM     28  O   UNL     1      -9.701  22.851  -0.309  1.00  0.00    -0.388 OA
ATOM     29  H   UNL     1      -9.315  23.385   0.406  1.00  0.00     0.211 HD
ENDBRANCH  27  28
ENDBRANCH   2  27
TORSDOF 5
ENDMDL
MODEL 7
REMARK VINA RESULT:    -5.178     11.178     13.711
REMARK INTER + INTRA:          -6.420
REMARK INTER:                  -6.340
REMARK INTRA:                  -0.080
REMARK UNBOUND:                -0.183
REMARK SMILES C[C@]12CCC(=O)C=C1CC[C@@H]1[C@@H]2[C@@H](O)C[C@@]2(C)[C@H]1CC[C@]2(O)C(=O)CO
REMARK SMILES IDX 24 1 23 2 21 3 16 4 20 5 18 6 15 7 19 8 11 9 13 10 12 11
REMARK SMILES IDX 10 12 2 13 9 14 8 15 3 16 7 17 4 18 5 19 6 20 17 21 1 22
REMARK SMILES IDX 22 23 14 25 25 27 26 28
REMARK H PARENT 22 24 14 26 26 29
ROOT
ATOM      1  O   UNL     1     -15.740  24.913   0.827  1.00  0.00    -0.294 OA
ATOM      2  C   UNL     1     -15.234  26.032   0.905  1.00  0.00     0.190 C 
ENDROOT
BRANCH   2   3
ATOM      3  C   UNL     1     -14.014  26.280   1.740  1.00  0.00     0.131 C 
ATOM      4  C   UNL     1     -12.780  26.754   0.923  1.00  0.00     0.009 C 
ATOM      5  C   UNL     1     -13.513  25.024   2.489  1.00  0.00     0.044 C 
ATOM      6  C   UNL     1     -11.673  26.512   1.971  1.00  0.00     0.002 C 
ATOM      7  C   UNL     1     -12.748  28.252   0.555  1.00  0.00     0.042 C 
ATOM      8  C   UNL     1     -11.972  25.107   2.484  1.00  0.00     0.008 C 
ATOM      9  C   UNL     1     -10.259  26.829   1.458  1.00  0.00    -0.000 C 
ATOM     10  C   UNL     1     -11.361  28.728   0.070  1.00  0.00     0.119 C 
ATOM     11  C   UNL     1     -10.202  28.334   1.038  1.00  0.00     0.031 C 
ATOM     12  C   UNL     1      -9.217  26.539   2.549  1.00  0.00     0.009 C 
ATOM     13  C   UNL     1      -8.754  28.795   0.593  1.00  0.00    -0.005 C 
ATOM     14  C   UNL     1      -7.813  26.921   2.106  1.00  0.00     0.032 C 
ATOM     15  C   UNL     1      -7.737  28.360   1.658  1.00  0.00    -0.060 C 
ATOM     16  C   UNL     1      -8.760  30.346   0.467  1.00  0.00     0.020 C 
ATOM     17  C   UNL     1      -6.788  29.163   2.167  1.00  0.00     0.047 C 
ATOM     18  C   UNL     1      -7.369  30.960   0.436  1.00  0.00     0.081 C 
ATOM     19  C   UNL     1      -6.587  30.537   1.653  1.00  0.00     0.155 C 
ATOM     20  O   UNL     1      -5.749  31.270   2.172  1.00  0.00    -0.295 OA
ATOM     21  C   UNL     1     -12.627  25.872  -0.346  1.00  0.00     0.015 C 
ATOM     22  C   UNL     1      -8.296  28.184  -0.751  1.00  0.00     0.016 C 
BRANCH   3  23
ATOM     23  O   UNL     1     -14.413  27.266   2.689  1.00  0.00    -0.381 OA
ATOM     24  H   UNL     1     -13.616  27.621   3.118  1.00  0.00     0.212 HD
ENDBRANCH   3  23
BRANCH  10  25
ATOM     25  O   UNL     1     -11.127  28.237  -1.243  1.00  0.00    -0.393 OA
ATOM     26  H   UNL     1     -11.976  28.240  -1.717  1.00  0.00     0.210 HD
ENDBRANCH  10  25
ENDBRANCH   2   3
BRANCH   2  27
ATOM     27  C   UNL     1     -15.798  27.230   0.170  1.00  0.00     0.234 C 
BRANCH  27  28
ATOM     28  O   UNL     1     -16.414  28.124   1.073  1.00  0.00    -0.388 OA
ATOM     29  H   UNL     1     -15.959  28.035   1.929  1.00  0.00     0.211 HD
ENDBRANCH  27  28
ENDBRANCH   2  27
TORSDOF 5
ENDMDL
MODEL 8
REMARK VINA RESULT:    -5.130     11.477     13.230
REMARK INTER + INTRA:          -6.362
REMARK INTER:                  -6.291
REMARK INTRA:                  -0.071
REMARK UNBOUND:                -0.183
REMARK SMILES C[C@]12CCC(=O)C=C1CC[C@@H]1[C@@H]2[C@@H](O)C[C@@]2(C)[C@H]1CC[C@]2(O)C(=O)CO
REMARK SMILES IDX 24 1 23 2 21 3 16 4 20 5 18 6 15 7 19 8 11 9 13 10 12 11
REMARK SMILES IDX 10 12 2 13 9 14 8 15 3 16 7 17 4 18 5 19 6 20 17 21 1 22
REMARK SMILES IDX 22 23 14 25 25 27 26 28
REMARK H PARENT 22 24 14 26 26 29
ROOT
ATOM      1  O   UNL     1     -14.232  24.481   1.137  1.00  0.00    -0.294 OA
ATOM      2  C   UNL     1     -13.149  24.037   1.517  1.00  0.00     0.190 C 
ENDROOT
BRANCH   2   3
ATOM      3  C   UNL     1     -12.086  24.941   2.065  1.00  0.00     0.131 C 
ATOM      4  C   UNL     1     -11.561  25.986   1.041  1.00  0.00     0.009 C 
ATOM      5  C   UNL     1     -10.816  24.190   2.526  1.00  0.00     0.044 C 
ATOM      6  C   UNL     1     -10.270  26.425   1.766  1.00  0.00     0.002 C 
ATOM      7  C   UNL     1     -12.434  27.243   0.851  1.00  0.00     0.042 C 
ATOM      8  C   UNL     1      -9.623  25.103   2.169  1.00  0.00     0.008 C 
ATOM      9  C   UNL     1      -9.439  27.447   0.975  1.00  0.00    -0.000 C 
ATOM     10  C   UNL     1     -11.701  28.384   0.112  1.00  0.00     0.119 C 
ATOM     11  C   UNL     1     -10.309  28.722   0.730  1.00  0.00     0.031 C 
ATOM     12  C   UNL     1      -8.163  27.812   1.750  1.00  0.00     0.009 C 
ATOM     13  C   UNL     1      -9.508  29.886   0.014  1.00  0.00    -0.005 C 
ATOM     14  C   UNL     1      -7.355  28.885   1.037  1.00  0.00     0.032 C 
ATOM     15  C   UNL     1      -8.182  30.115   0.752  1.00  0.00    -0.060 C 
ATOM     16  C   UNL     1     -10.378  31.175   0.071  1.00  0.00     0.020 C 
ATOM     17  C   UNL     1      -7.719  31.323   1.113  1.00  0.00     0.047 C 
ATOM     18  C   UNL     1      -9.599  32.450  -0.214  1.00  0.00     0.081 C 
ATOM     19  C   UNL     1      -8.429  32.565   0.728  1.00  0.00     0.155 C 
ATOM     20  O   UNL     1      -8.014  33.654   1.117  1.00  0.00    -0.295 OA
ATOM     21  C   UNL     1     -11.294  25.289  -0.321  1.00  0.00     0.015 C 
ATOM     22  C   UNL     1      -9.161  29.581  -1.462  1.00  0.00     0.016 C 
BRANCH   3  23
ATOM     23  O   UNL     1     -12.689  25.578   3.188  1.00  0.00    -0.381 OA
ATOM     24  H   UNL     1     -11.992  26.020   3.702  1.00  0.00     0.212 HD
ENDBRANCH   3  23
BRANCH  10  25
ATOM     25  O   UNL     1     -11.591  28.058  -1.267  1.00  0.00    -0.393 OA
ATOM     26  H   UNL     1     -10.912  27.368  -1.355  1.00  0.00     0.210 HD
ENDBRANCH  10  25
ENDBRANCH   2   3
BRANCH   2  27
ATOM     27  C   UNL     1     -12.812  22.562   1.460  1.00  0.00     0.234 C 
BRANCH  27  28
ATOM     28  O   UNL     1     -13.277  21.900   2.617  1.00  0.00    -0.388 OA
ATOM     29  H   UNL     1     -14.249  21.883   2.574  1.00  0.00     0.211 HD
ENDBRANCH  27  28
ENDBRANCH   2  27
TORSDOF 5
ENDMDL
MODEL 9
REMARK VINA RESULT:    -5.105     11.324     12.929
REMARK INTER + INTRA:          -6.332
REMARK INTER:                  -6.131
REMARK INTRA:                  -0.200
REMARK UNBOUND:                -0.183
REMARK SMILES C[C@]12CCC(=O)C=C1CC[C@@H]1[C@@H]2[C@@H](O)C[C@@]2(C)[C@H]1CC[C@]2(O)C(=O)CO
REMARK SMILES IDX 24 1 23 2 21 3 16 4 20 5 18 6 15 7 19 8 11 9 13 10 12 11
REMARK SMILES IDX 10 12 2 13 9 14 8 15 3 16 7 17 4 18 5 19 6 20 17 21 1 22
REMARK SMILES IDX 22 23 14 25 25 27 26 28
REMARK H PARENT 22 24 14 26 26 29
ROOT
ATOM      1  O   UNL     1      -7.708  32.267  -1.588  1.00  0.00    -0.294 OA
ATOM      2  C   UNL     1      -7.833  31.132  -2.047  1.00  0.00     0.190 C 
ENDROOT
BRANCH   2   3
ATOM      3  C   UNL     1      -7.618  29.917  -1.194  1.00  0.00     0.131 C 
ATOM      4  C   UNL     1      -8.935  29.238  -0.726  1.00  0.00     0.009 C 
ATOM      5  C   UNL     1      -6.856  30.213   0.118  1.00  0.00     0.044 C 
ATOM      6  C   UNL     1      -8.373  28.345   0.401  1.00  0.00     0.002 C 
ATOM      7  C   UNL     1      -9.619  28.311  -1.752  1.00  0.00     0.042 C 
ATOM      8  C   UNL     1      -7.478  29.294   1.192  1.00  0.00     0.008 C 
ATOM      9  C   UNL     1      -9.453  27.548   1.150  1.00  0.00    -0.000 C 
ATOM     10  C   UNL     1     -10.699  27.403  -1.124  1.00  0.00     0.119 C 
ATOM     11  C   UNL     1     -10.194  26.623   0.130  1.00  0.00     0.031 C 
ATOM     12  C   UNL     1      -8.817  26.707   2.269  1.00  0.00     0.009 C 
ATOM     13  C   UNL     1     -11.259  25.675   0.819  1.00  0.00    -0.005 C 
ATOM     14  C   UNL     1      -9.845  25.839   2.977  1.00  0.00     0.032 C 
ATOM     15  C   UNL     1     -10.603  24.963   2.011  1.00  0.00    -0.060 C 
ATOM     16  C   UNL     1     -11.724  24.628  -0.235  1.00  0.00     0.020 C 
ATOM     17  C   UNL     1     -10.701  23.645   2.248  1.00  0.00     0.047 C 
ATOM     18  C   UNL     1     -12.432  23.427   0.372  1.00  0.00     0.081 C 
ATOM     19  C   UNL     1     -11.552  22.773   1.406  1.00  0.00     0.155 C 
ATOM     20  O   UNL     1     -11.582  21.562   1.611  1.00  0.00    -0.295 OA
ATOM     21  C   UNL     1      -9.925  30.320  -0.216  1.00  0.00     0.015 C 
ATOM     22  C   UNL     1     -12.497  26.425   1.361  1.00  0.00     0.016 C 
BRANCH   3  23
ATOM     23  O   UNL     1      -6.841  29.036  -2.000  1.00  0.00    -0.381 OA
ATOM     24  H   UNL     1      -5.900  29.219  -1.837  1.00  0.00     0.212 HD
ENDBRANCH   3  23
BRANCH  10  25
ATOM     25  O   UNL     1     -11.850  28.180  -0.821  1.00  0.00    -0.393 OA
ATOM     26  H   UNL     1     -11.572  28.908  -0.240  1.00  0.00     0.210 HD
ENDBRANCH  10  25
ENDBRANCH   2   3
BRANCH   2  27
ATOM     27  C   UNL     1      -8.211  30.878  -3.491  1.00  0.00     0.234 C 
BRANCH  27  28
ATOM     28  O   UNL     1      -7.056  30.740  -4.291  1.00  0.00    -0.388 OA
ATOM     29  H   UNL     1      -7.336  30.379  -5.151  1.00  0.00     0.211 HD
ENDBRANCH  27  28
ENDBRANCH   2  27
TORSDOF 5
ENDMDL
