MODEL 1
REMARK VINA RESULT:    -7.169      0.000      0.000
REMARK INTER + INTRA:          -8.802
REMARK INTER:                  -8.635
REMARK INTRA:                  -0.167
REMARK UNBOUND:                -0.167
REMARK SMILES C[C@]12CCC(=O)C=C1CC[C@@H]1[C@@H]2[C@@H](O)C[C@@]2(C)[C@H]1CC[C@]2(O)C(=O)CO
REMARK SMILES IDX 24 1 23 2 21 3 16 4 20 5 18 6 15 7 19 8 11 9 13 10 12 11
REMARK SMILES IDX 10 12 2 13 9 14 8 15 3 16 7 17 4 18 5 19 6 20 17 21 1 22
REMARK SMILES IDX 22 23 14 25 25 27 26 28
REMARK H PARENT 22 24 14 26 26 29
ROOT
ATOM      1  O   UNL     1      -6.443  -5.633  -7.865  1.00  0.00    -0.294 OA
ATOM      2  C   UNL     1      -6.107  -5.199  -6.764  1.00  0.00     0.190 C 
ENDROOT
BRANCH   2   3
ATOM      3  C   UNL     1      -4.661  -5.052  -6.393  1.00  0.00     0.131 C 
ATOM      4  C   UNL     1      -4.174  -3.577  -6.337  1.00  0.00     0.009 C 
ATOM      5  C   UNL     1      -3.696  -5.734  -7.389  1.00  0.00     0.044 C 
ATOM      6  C   UNL     1      -2.648  -3.813  -6.348  1.00  0.00     0.002 C 
ATOM      7  C   UNL     1      -4.512  -2.801  -5.048  1.00  0.00     0.042 C 
ATOM      8  C   UNL     1      -2.454  -4.822  -7.476  1.00  0.00     0.008 C 
ATOM      9  C   UNL     1      -1.825  -2.515  -6.363  1.00  0.00    -0.000 C 
ATOM     10  C   UNL     1      -3.711  -1.489  -4.902  1.00  0.00     0.119 C 
ATOM     11  C   UNL     1      -2.173  -1.684  -5.086  1.00  0.00     0.031 C 
ATOM     12  C   UNL     1      -0.323  -2.836  -6.399  1.00  0.00     0.009 C 
ATOM     13  C   UNL     1      -1.297  -0.372  -4.947  1.00  0.00    -0.005 C 
ATOM     14  C   UNL     1       0.527  -1.576  -6.329  1.00  0.00     0.032 C 
ATOM     15  C   UNL     1       0.184  -0.734  -5.125  1.00  0.00    -0.060 C 
ATOM     16  C   UNL     1      -1.534   0.217  -3.526  1.00  0.00     0.020 C 
ATOM     17  C   UNL     1       1.165  -0.318  -4.307  1.00  0.00     0.047 C 
ATOM     18  C   UNL     1      -0.483   1.233  -3.105  1.00  0.00     0.081 C 
ATOM     19  C   UNL     1       0.893   0.625  -3.198  1.00  0.00     0.155 C 
ATOM     20  O   UNL     1       1.797   0.947  -2.431  1.00  0.00    -0.295 OA
ATOM     21  C   UNL     1      -4.685  -2.814  -7.590  1.00  0.00     0.015 C 
ATOM     22  C   UNL     1      -1.631   0.709  -6.000  1.00  0.00     0.016 C 
BRANCH   3  23
ATOM     23  O   UNL     1      -4.544  -5.681  -5.119  1.00  0.00    -0.381 OA
ATOM     24  H   UNL     1      -4.845  -6.602  -5.203  1.00  0.00     0.212 HD
ENDBRANCH   3  23
BRANCH  10  25
ATOM     25  O   UNL     1      -4.221  -0.521  -5.808  1.00  0.00    -0.393 OA
ATOM     26  H   UNL     1      -4.589   0.211  -5.284  1.00  0.00     0.210 HD
ENDBRANCH  10  25
ENDBRANCH   2   3
BRANCH   2  27
ATOM     27  C   UNL     1      -7.114  -4.783  -5.712  1.00  0.00     0.234 C 
BRANCH  27  28
ATOM     28  O   UNL     1      -7.274  -5.800  -4.746  1.00  0.00    -0.388 OA
ATOM     29  H   UNL     1      -6.419  -5.911  -4.293  1.00  0.00     0.211 HD
ENDBRANCH  27  28
ENDBRANCH   2  27
TORSDOF 5
ENDMDL
MODEL 2
REMARK VINA RESULT:    -6.257      1.998      2.558
REMARK INTER + INTRA:          -7.704
REMARK INTER:                  -7.722
REMARK INTRA:                   0.018
REMARK UNBOUND:                -0.167
REMARK SMILES C[C@]12CCC(=O)C=C1CC[C@@H]1[C@@H]2[C@@H](O)C[C@@]2(C)[C@H]1CC[C@]2(O)C(=O)CO
REMARK SMILES IDX 24 1 23 2 21 3 16 4 20 5 18 6 15 7 19 8 11 9 13 10 12 11
REMARK SMILES IDX 10 12 2 13 9 14 8 15 3 16 7 17 4 18 5 19 6 20 17 21 1 22
REMARK SMILES IDX 22 23 14 25 25 27 26 28
REMARK H PARENT 22 24 14 26 26 29
ROOT
ATOM      1  O   UNL     1      -8.910  -2.980  -7.962  1.00  0.00    -0.294 OA
ATOM      2  C   UNL     1      -8.400  -2.852  -6.850  1.00  0.00     0.190 C 
ENDROOT
BRANCH   2   3
ATOM      3  C   UNL     1      -7.104  -3.524  -6.505  1.00  0.00     0.131 C 
ATOM      4  C   UNL     1      -5.869  -2.586  -6.597  1.00  0.00     0.009 C 
ATOM      5  C   UNL     1      -6.755  -4.706  -7.437  1.00  0.00     0.044 C 
ATOM      6  C   UNL     1      -4.745  -3.645  -6.596  1.00  0.00     0.002 C 
ATOM      7  C   UNL     1      -5.631  -1.659  -5.388  1.00  0.00     0.042 C 
ATOM      8  C   UNL     1      -5.223  -4.669  -7.622  1.00  0.00     0.008 C 
ATOM      9  C   UNL     1      -3.337  -3.049  -6.743  1.00  0.00    -0.000 C 
ATOM     10  C   UNL     1      -4.222  -1.026  -5.376  1.00  0.00     0.119 C 
ATOM     11  C   UNL     1      -3.077  -2.072  -5.551  1.00  0.00     0.031 C 
ATOM     12  C   UNL     1      -2.282  -4.166  -6.758  1.00  0.00     0.009 C 
ATOM     13  C   UNL     1      -1.607  -1.482  -5.547  1.00  0.00    -0.005 C 
ATOM     14  C   UNL     1      -0.868  -3.609  -6.818  1.00  0.00     0.032 C 
ATOM     15  C   UNL     1      -0.602  -2.632  -5.699  1.00  0.00    -0.060 C 
ATOM     16  C   UNL     1      -1.383  -0.756  -4.189  1.00  0.00     0.020 C 
ATOM     17  C   UNL     1       0.491  -2.785  -4.932  1.00  0.00     0.047 C 
ATOM     18  C   UNL     1       0.081  -0.487  -3.877  1.00  0.00     0.081 C 
ATOM     19  C   UNL     1       0.866  -1.772  -3.919  1.00  0.00     0.155 C 
ATOM     20  O   UNL     1       1.840  -1.962  -3.194  1.00  0.00    -0.295 OA
ATOM     21  C   UNL     1      -5.936  -1.766  -7.915  1.00  0.00     0.015 C 
ATOM     22  C   UNL     1      -1.337  -0.486  -6.698  1.00  0.00     0.016 C 
BRANCH   3  23
ATOM     23  O   UNL     1      -7.285  -4.009  -5.177  1.00  0.00    -0.381 OA
ATOM     24  H   UNL     1      -6.774  -4.831  -5.078  1.00  0.00     0.212 HD
ENDBRANCH   3  23
BRANCH  10  25
ATOM     25  O   UNL     1      -4.152  -0.012  -6.369  1.00  0.00    -0.393 OA
ATOM     26  H   UNL     1      -4.902   0.591  -6.230  1.00  0.00     0.210 HD
ENDBRANCH  10  25
ENDBRANCH   2   3
BRANCH   2  27
ATOM     27  C   UNL     1      -9.034  -2.017  -5.758  1.00  0.00     0.234 C 
BRANCH  27  28
ATOM     28  O   UNL     1     -10.064  -1.207  -6.284  1.00  0.00    -0.388 OA
ATOM     29  H   UNL     1     -10.408  -0.661  -5.555  1.00  0.00     0.211 HD
ENDBRANCH  27  28
ENDBRANCH   2  27
TORSDOF 5
ENDMDL
MODEL 3
REMARK VINA RESULT:    -6.046     11.564     14.018
REMARK INTER + INTRA:          -7.450
REMARK INTER:                  -7.365
REMARK INTRA:                  -0.086
REMARK UNBOUND:                -0.167
REMARK SMILES C[C@]12CCC(=O)C=C1CC[C@@H]1[C@@H]2[C@@H](O)C[C@@]2(C)[C@H]1CC[C@]2(O)C(=O)CO
REMARK SMILES IDX 24 1 23 2 21 3 16 4 20 5 18 6 15 7 19 8 11 9 13 10 12 11
REMARK SMILES IDX 10 12 2 13 9 14 8 15 3 16 7 17 4 18 5 19 6 20 17 21 1 22
REMARK SMILES IDX 22 23 14 25 25 27 26 28
REMARK H PARENT 22 24 14 26 26 29
ROOT
ATOM      1  O   UNL     1     -13.558  -9.050  -3.741  1.00  0.00    -0.294 OA
ATOM      2  C   UNL     1     -13.747  -7.960  -3.201  1.00  0.00     0.190 C 
ENDROOT
BRANCH   2   3
ATOM      3  C   UNL     1     -13.588  -6.676  -3.960  1.00  0.00     0.131 C 
ATOM      4  C   UNL     1     -14.931  -6.063  -4.444  1.00  0.00     0.009 C 
ATOM      5  C   UNL     1     -12.749  -6.822  -5.250  1.00  0.00     0.044 C 
ATOM      6  C   UNL     1     -14.390  -5.055  -5.481  1.00  0.00     0.002 C 
ATOM      7  C   UNL     1     -15.727  -5.262  -3.393  1.00  0.00     0.042 C 
ATOM      8  C   UNL     1     -13.392  -5.878  -6.289  1.00  0.00     0.008 C 
ATOM      9  C   UNL     1     -15.493  -4.287  -6.226  1.00  0.00    -0.000 C 
ATOM     10  C   UNL     1     -16.844  -4.394  -4.010  1.00  0.00     0.119 C 
ATOM     11  C   UNL     1     -16.346  -3.493  -5.183  1.00  0.00     0.031 C 
ATOM     12  C   UNL     1     -14.875  -3.326  -7.253  1.00  0.00     0.009 C 
ATOM     13  C   UNL     1     -17.448  -2.578  -5.858  1.00  0.00    -0.005 C 
ATOM     14  C   UNL     1     -15.934  -2.487  -7.952  1.00  0.00     0.032 C 
ATOM     15  C   UNL     1     -16.798  -1.739  -6.966  1.00  0.00    -0.060 C 
ATOM     16  C   UNL     1     -18.037  -1.645  -4.761  1.00  0.00     0.020 C 
ATOM     17  C   UNL     1     -16.985  -0.417  -7.119  1.00  0.00     0.047 C 
ATOM     18  C   UNL     1     -18.807  -0.458  -5.319  1.00  0.00     0.081 C 
ATOM     19  C   UNL     1     -17.935   0.329  -6.263  1.00  0.00     0.155 C 
ATOM     20  O   UNL     1     -18.048   1.546  -6.387  1.00  0.00    -0.295 OA
ATOM     21  C   UNL     1     -15.813  -7.176  -5.073  1.00  0.00     0.015 C 
ATOM     22  C   UNL     1     -18.601  -3.376  -6.508  1.00  0.00     0.016 C 
BRANCH   3  23
ATOM     23  O   UNL     1     -12.916  -5.800  -3.059  1.00  0.00    -0.381 OA
ATOM     24  H   UNL     1     -13.316  -5.899  -2.178  1.00  0.00     0.212 HD
ENDBRANCH   3  23
BRANCH  10  25
ATOM     25  O   UNL     1     -17.919  -5.229  -4.420  1.00  0.00    -0.393 OA
ATOM     26  H   UNL     1     -17.625  -6.152  -4.337  1.00  0.00     0.210 HD
ENDBRANCH  10  25
ENDBRANCH   2   3
BRANCH   2  27
ATOM     27  C   UNL     1     -14.153  -7.834  -1.748  1.00  0.00     0.234 C 
BRANCH  27  28
ATOM     28  O   UNL     1     -15.431  -8.396  -1.536  1.00  0.00    -0.388 OA
ATOM     29  H   UNL     1     -15.344  -9.361  -1.617  1.00  0.00     0.211 HD
ENDBRANCH  27  28
ENDBRANCH   2  27
TORSDOF 5
ENDMDL
MODEL 4
REMARK VINA RESULT:    -5.693      2.004      3.293
REMARK INTER + INTRA:          -7.025
REMARK INTER:                  -6.903
REMARK INTRA:                  -0.122
REMARK UNBOUND:                -0.167
REMARK SMILES C[C@]12CCC(=O)C=C1CC[C@@H]1[C@@H]2[C@@H](O)C[C@@]2(C)[C@H]1CC[C@]2(O)C(=O)CO
REMARK SMILES IDX 24 1 23 2 21 3 16 4 20 5 18 6 15 7 19 8 11 9 13 10 12 11
REMARK SMILES IDX 10 12 2 13 9 14 8 15 3 16 7 17 4 18 5 19 6 20 17 21 1 22
REMARK SMILES IDX 22 23 14 25 25 27 26 28
REMARK H PARENT 22 24 14 26 26 29
ROOT
ATOM      1  O   UNL     1      -7.481  -3.842  -7.004  1.00  0.00    -0.294 OA
ATOM      2  C   UNL     1      -7.351  -3.669  -5.793  1.00  0.00     0.190 C 
ENDROOT
BRANCH   2   3
ATOM      3  C   UNL     1      -6.495  -2.563  -5.251  1.00  0.00     0.131 C 
ATOM      4  C   UNL     1      -5.013  -2.634  -5.712  1.00  0.00     0.009 C 
ATOM      5  C   UNL     1      -6.413  -2.546  -3.708  1.00  0.00     0.044 C 
ATOM      6  C   UNL     1      -4.383  -1.663  -4.690  1.00  0.00     0.002 C 
ATOM      7  C   UNL     1      -4.715  -2.081  -7.120  1.00  0.00     0.042 C 
ATOM      8  C   UNL     1      -4.972  -2.117  -3.359  1.00  0.00     0.008 C 
ATOM      9  C   UNL     1      -2.857  -1.537  -4.822  1.00  0.00    -0.000 C 
ATOM     10  C   UNL     1      -3.209  -1.850  -7.376  1.00  0.00     0.119 C 
ATOM     11  C   UNL     1      -2.517  -1.013  -6.256  1.00  0.00     0.031 C 
ATOM     12  C   UNL     1      -2.306  -0.574  -3.758  1.00  0.00     0.009 C 
ATOM     13  C   UNL     1      -0.970  -0.743  -6.462  1.00  0.00    -0.005 C 
ATOM     14  C   UNL     1      -0.809  -0.358  -3.910  1.00  0.00     0.032 C 
ATOM     15  C   UNL     1      -0.447   0.110  -5.298  1.00  0.00    -0.060 C 
ATOM     16  C   UNL     1      -0.789   0.021  -7.805  1.00  0.00     0.020 C 
ATOM     17  C   UNL     1       0.324   1.200  -5.450  1.00  0.00     0.047 C 
ATOM     18  C   UNL     1       0.570   0.689  -7.948  1.00  0.00     0.081 C 
ATOM     19  C   UNL     1       0.820   1.611  -6.783  1.00  0.00     0.155 C 
ATOM     20  O   UNL     1       1.479   2.642  -6.902  1.00  0.00    -0.295 OA
ATOM     21  C   UNL     1      -4.495  -4.092  -5.571  1.00  0.00     0.015 C 
ATOM     22  C   UNL     1      -0.117  -2.032  -6.500  1.00  0.00     0.016 C 
BRANCH   3  23
ATOM     23  O   UNL     1      -7.118  -1.363  -5.702  1.00  0.00    -0.381 OA
ATOM     24  H   UNL     1      -7.683  -1.023  -4.987  1.00  0.00     0.212 HD
ENDBRANCH   3  23
BRANCH  10  25
ATOM     25  O   UNL     1      -2.565  -3.104  -7.558  1.00  0.00    -0.393 OA
ATOM     26  H   UNL     1      -2.024  -3.277  -6.769  1.00  0.00     0.210 HD
ENDBRANCH  10  25
ENDBRANCH   2   3
BRANCH   2  27
ATOM     27  C   UNL     1      -8.038  -4.548  -4.769  1.00  0.00     0.234 C 
BRANCH  27  28
ATOM     28  O   UNL     1      -7.448  -5.831  -4.738  1.00  0.00    -0.388 OA
ATOM     29  H   UNL     1      -6.888  -5.915  -5.530  1.00  0.00     0.211 HD
ENDBRANCH  27  28
ENDBRANCH   2  27
TORSDOF 5
ENDMDL
MODEL 5
REMARK VINA RESULT:    -5.650     10.228     13.754
REMARK INTER + INTRA:          -6.973
REMARK INTER:                  -7.383
REMARK INTRA:                   0.410
REMARK UNBOUND:                -0.167
REMARK SMILES C[C@]12CCC(=O)C=C1CC[C@@H]1[C@@H]2[C@@H](O)C[C@@]2(C)[C@H]1CC[C@]2(O)C(=O)CO
REMARK SMILES IDX 24 1 23 2 21 3 16 4 20 5 18 6 15 7 19 8 11 9 13 10 12 11
REMARK SMILES IDX 10 12 2 13 9 14 8 15 3 16 7 17 4 18 5 19 6 20 17 21 1 22
REMARK SMILES IDX 22 23 14 25 25 27 26 28
REMARK H PARENT 22 24 14 26 26 29
ROOT
ATOM      1  O   UNL     1     -11.720  -9.122  -2.237  1.00  0.00    -0.294 OA
ATOM      2  C   UNL     1     -11.466  -7.973  -1.875  1.00  0.00     0.190 C 
ENDROOT
BRANCH   2   3
ATOM      3  C   UNL     1     -11.832  -6.791  -2.722  1.00  0.00     0.131 C 
ATOM      4  C   UNL     1     -13.301  -6.814  -3.229  1.00  0.00     0.009 C 
ATOM      5  C   UNL     1     -10.988  -6.670  -4.011  1.00  0.00     0.044 C 
ATOM      6  C   UNL     1     -13.203  -5.746  -4.340  1.00  0.00     0.002 C 
ATOM      7  C   UNL     1     -14.371  -6.338  -2.225  1.00  0.00     0.042 C 
ATOM      8  C   UNL     1     -11.943  -6.143  -5.103  1.00  0.00     0.008 C 
ATOM      9  C   UNL     1     -14.512  -5.548  -5.121  1.00  0.00    -0.000 C 
ATOM     10  C   UNL     1     -15.736  -6.045  -2.886  1.00  0.00     0.119 C 
ATOM     11  C   UNL     1     -15.630  -5.102  -4.124  1.00  0.00     0.031 C 
ATOM     12  C   UNL     1     -14.323  -4.491  -6.221  1.00  0.00     0.009 C 
ATOM     13  C   UNL     1     -16.999  -4.765  -4.845  1.00  0.00    -0.005 C 
ATOM     14  C   UNL     1     -15.621  -4.207  -6.960  1.00  0.00     0.032 C 
ATOM     15  C   UNL     1     -16.730  -3.811  -6.017  1.00  0.00    -0.060 C 
ATOM     16  C   UNL     1     -17.935  -4.081  -3.807  1.00  0.00     0.020 C 
ATOM     17  C   UNL     1     -17.438  -2.695  -6.258  1.00  0.00     0.047 C 
ATOM     18  C   UNL     1     -19.113  -3.352  -4.435  1.00  0.00     0.081 C 
ATOM     19  C   UNL     1     -18.623  -2.345  -5.442  1.00  0.00     0.155 C 
ATOM     20  O   UNL     1     -19.221  -1.291  -5.648  1.00  0.00    -0.295 OA
ATOM     21  C   UNL     1     -13.643  -8.230  -3.769  1.00  0.00     0.015 C 
ATOM     22  C   UNL     1     -17.716  -6.006  -5.424  1.00  0.00     0.016 C 
BRANCH   3  23
ATOM     23  O   UNL     1     -11.591  -5.657  -1.893  1.00  0.00    -0.381 OA
ATOM     24  H   UNL     1     -10.978  -5.062  -2.357  1.00  0.00     0.212 HD
ENDBRANCH   3  23
BRANCH  10  25
ATOM     25  O   UNL     1     -16.369  -7.272  -3.222  1.00  0.00    -0.393 OA
ATOM     26  H   UNL     1     -15.861  -7.991  -2.811  1.00  0.00     0.210 HD
ENDBRANCH  10  25
ENDBRANCH   2   3
BRANCH   2  27
ATOM     27  C   UNL     1     -10.774  -7.670  -0.563  1.00  0.00     0.234 C 
BRANCH  27  28
ATOM     28  O   UNL     1     -11.706  -7.641   0.497  1.00  0.00    -0.388 OA
ATOM     29  H   UNL     1     -11.205  -7.699   1.329  1.00  0.00     0.211 HD
ENDBRANCH  27  28
ENDBRANCH   2  27
TORSDOF 5
ENDMDL
MODEL 6
REMARK VINA RESULT:    -5.598      9.512     13.161
REMARK INTER + INTRA:          -6.910
REMARK INTER:                  -7.368
REMARK INTRA:                   0.458
REMARK UNBOUND:                -0.167
REMARK SMILES C[C@]12CCC(=O)C=C1CC[C@@H]1[C@@H]2[C@@H](O)C[C@@]2(C)[C@H]1CC[C@]2(O)C(=O)CO
REMARK SMILES IDX 24 1 23 2 21 3 16 4 20 5 18 6 15 7 19 8 11 9 13 10 12 11
REMARK SMILES IDX 10 12 2 13 9 14 8 15 3 16 7 17 4 18 5 19 6 20 17 21 1 22
REMARK SMILES IDX 22 23 14 25 25 27 26 28
REMARK H PARENT 22 24 14 26 26 29
ROOT
ATOM      1  O   UNL     1     -11.043  -7.798   0.507  1.00  0.00    -0.294 OA
ATOM      2  C   UNL     1     -10.527  -6.710   0.251  1.00  0.00     0.190 C 
ENDROOT
BRANCH   2   3
ATOM      3  C   UNL     1     -10.938  -5.916  -0.953  1.00  0.00     0.131 C 
ATOM      4  C   UNL     1     -12.003  -6.624  -1.837  1.00  0.00     0.009 C 
ATOM      5  C   UNL     1      -9.773  -5.621  -1.924  1.00  0.00     0.044 C 
ATOM      6  C   UNL     1     -11.876  -5.771  -3.118  1.00  0.00     0.002 C 
ATOM      7  C   UNL     1     -13.463  -6.517  -1.353  1.00  0.00     0.042 C 
ATOM      8  C   UNL     1     -10.370  -5.696  -3.346  1.00  0.00     0.008 C 
ATOM      9  C   UNL     1     -12.778  -6.250  -4.267  1.00  0.00    -0.000 C 
ATOM     10  C   UNL     1     -14.491  -6.919  -2.434  1.00  0.00     0.119 C 
ATOM     11  C   UNL     1     -14.267  -6.191  -3.796  1.00  0.00     0.031 C 
ATOM     12  C   UNL     1     -12.575  -5.367  -5.508  1.00  0.00     0.009 C 
ATOM     13  C   UNL     1     -15.292  -6.562  -4.945  1.00  0.00    -0.005 C 
ATOM     14  C   UNL     1     -13.513  -5.758  -6.640  1.00  0.00     0.032 C 
ATOM     15  C   UNL     1     -14.956  -5.748  -6.202  1.00  0.00    -0.060 C 
ATOM     16  C   UNL     1     -16.723  -6.207  -4.447  1.00  0.00     0.020 C 
ATOM     17  C   UNL     1     -15.865  -5.077  -6.930  1.00  0.00     0.047 C 
ATOM     18  C   UNL     1     -17.755  -6.135  -5.562  1.00  0.00     0.081 C 
ATOM     19  C   UNL     1     -17.310  -5.157  -6.619  1.00  0.00     0.155 C 
ATOM     20  O   UNL     1     -18.115  -4.492  -7.266  1.00  0.00    -0.295 OA
ATOM     21  C   UNL     1     -11.599  -8.109  -2.046  1.00  0.00     0.015 C 
ATOM     22  C   UNL     1     -15.257  -8.055  -5.346  1.00  0.00     0.016 C 
BRANCH   3  23
ATOM     23  O   UNL     1     -11.438  -4.689  -0.429  1.00  0.00    -0.381 OA
ATOM     24  H   UNL     1     -12.052  -4.892   0.297  1.00  0.00     0.212 HD
ENDBRANCH   3  23
BRANCH  10  25
ATOM     25  O   UNL     1     -14.481  -8.331  -2.593  1.00  0.00    -0.393 OA
ATOM     26  H   UNL     1     -15.284  -8.683  -2.175  1.00  0.00     0.210 HD
ENDBRANCH  10  25
ENDBRANCH   2   3
BRANCH   2  27
ATOM     27  C   UNL     1      -9.451  -6.098   1.123  1.00  0.00     0.234 C 
BRANCH  27  28
ATOM     28  O   UNL     1     -10.016  -5.206   2.060  1.00  0.00    -0.388 OA
ATOM     29  H   UNL     1      -9.409  -5.155   2.819  1.00  0.00     0.211 HD
ENDBRANCH  27  28
ENDBRANCH   2  27
TORSDOF 5
ENDMDL
MODEL 7
REMARK VINA RESULT:    -5.444     10.226     13.295
REMARK INTER + INTRA:          -6.725
REMARK INTER:                  -6.538
REMARK INTRA:                  -0.187
REMARK UNBOUND:                -0.167
REMARK SMILES C[C@]12CCC(=O)C=C1CC[C@@H]1[C@@H]2[C@@H](O)C[C@@]2(C)[C@H]1CC[C@]2(O)C(=O)CO
REMARK SMILES IDX 24 1 23 2 21 3 16 4 20 5 18 6 15 7 19 8 11 9 13 10 12 11
REMARK SMILES IDX 10 12 2 13 9 14 8 15 3 16 7 17 4 18 5 19 6 20 17 21 1 22
REMARK SMILES IDX 22 23 14 25 25 27 26 28
REMARK H PARENT 22 24 14 26 26 29
ROOT
ATOM      1  O   UNL     1     -18.479  -4.935  -7.956  1.00  0.00    -0.294 OA
ATOM      2  C   UNL     1     -17.568  -4.329  -7.394  1.00  0.00     0.190 C 
ENDROOT
BRANCH   2   3
ATOM      3  C   UNL     1     -17.297  -4.511  -5.930  1.00  0.00     0.131 C 
ATOM      4  C   UNL     1     -16.052  -5.390  -5.628  1.00  0.00     0.009 C 
ATOM      5  C   UNL     1     -18.448  -5.208  -5.172  1.00  0.00     0.044 C 
ATOM      6  C   UNL     1     -16.313  -5.694  -4.136  1.00  0.00     0.002 C 
ATOM      7  C   UNL     1     -14.684  -4.683  -5.722  1.00  0.00     0.042 C 
ATOM      8  C   UNL     1     -17.781  -6.109  -4.111  1.00  0.00     0.008 C 
ATOM      9  C   UNL     1     -15.267  -6.628  -3.507  1.00  0.00    -0.000 C 
ATOM     10  C   UNL     1     -13.538  -5.489  -5.074  1.00  0.00     0.119 C 
ATOM     11  C   UNL     1     -13.859  -5.957  -3.621  1.00  0.00     0.031 C 
ATOM     12  C   UNL     1     -15.611  -6.900  -2.034  1.00  0.00     0.009 C 
ATOM     13  C   UNL     1     -12.720  -6.790  -2.903  1.00  0.00    -0.005 C 
ATOM     14  C   UNL     1     -14.552  -7.753  -1.354  1.00  0.00     0.032 C 
ATOM     15  C   UNL     1     -13.176  -7.148  -1.482  1.00  0.00    -0.060 C 
ATOM     16  C   UNL     1     -11.441  -5.905  -2.844  1.00  0.00     0.020 C 
ATOM     17  C   UNL     1     -12.418  -6.988  -0.384  1.00  0.00     0.047 C 
ATOM     18  C   UNL     1     -10.401  -6.403  -1.852  1.00  0.00     0.081 C 
ATOM     19  C   UNL     1     -11.012  -6.532  -0.481  1.00  0.00     0.155 C 
ATOM     20  O   UNL     1     -10.357  -6.342   0.541  1.00  0.00    -0.295 OA
ATOM     21  C   UNL     1     -16.080  -6.657  -6.526  1.00  0.00     0.015 C 
ATOM     22  C   UNL     1     -12.379  -8.117  -3.620  1.00  0.00     0.016 C 
BRANCH   3  23
ATOM     23  O   UNL     1     -17.131  -3.190  -5.422  1.00  0.00    -0.381 OA
ATOM     24  H   UNL     1     -17.765  -3.058  -4.697  1.00  0.00     0.212 HD
ENDBRANCH   3  23
BRANCH  10  25
ATOM     25  O   UNL     1     -13.205  -6.589  -5.910  1.00  0.00    -0.393 OA
ATOM     26  H   UNL     1     -12.236  -6.675  -5.916  1.00  0.00     0.210 HD
ENDBRANCH  10  25
ENDBRANCH   2   3
BRANCH   2  27
ATOM     27  C   UNL     1     -16.660  -3.366  -8.130  1.00  0.00     0.234 C 
BRANCH  27  28
ATOM     28  O   UNL     1     -17.108  -2.037  -7.969  1.00  0.00    -0.388 OA
ATOM     29  H   UNL     1     -16.361  -1.515  -7.626  1.00  0.00     0.211 HD
ENDBRANCH  27  28
ENDBRANCH   2  27
TORSDOF 5
ENDMDL
MODEL 8
REMARK VINA RESULT:    -5.310      9.218     11.341
REMARK INTER + INTRA:          -6.563
REMARK INTER:                  -6.385
REMARK INTRA:                  -0.178
REMARK UNBOUND:                -0.167
REMARK SMILES C[C@]12CCC(=O)C=C1CC[C@@H]1[C@@H]2[C@@H](O)C[C@@]2(C)[C@H]1CC[C@]2(O)C(=O)CO
REMARK SMILES IDX 24 1 23 2 21 3 16 4 20 5 18 6 15 7 19 8 11 9 13 10 12 11
REMARK SMILES IDX 10 12 2 13 9 14 8 15 3 16 7 17 4 18 5 19 6 20 17 21 1 22
REMARK SMILES IDX 22 23 14 25 25 27 26 28
REMARK H PARENT 22 24 14 26 26 29
ROOT
ATOM      1  O   UNL     1     -13.837 -11.628  -8.084  1.00  0.00    -0.294 OA
ATOM      2  C   UNL     1     -13.075 -11.809  -7.134  1.00  0.00     0.190 C 
ENDROOT
BRANCH   2   3
ATOM      3  C   UNL     1     -12.053 -10.782  -6.748  1.00  0.00     0.131 C 
ATOM      4  C   UNL     1     -12.521  -9.826  -5.616  1.00  0.00     0.009 C 
ATOM      5  C   UNL     1     -11.661  -9.836  -7.906  1.00  0.00     0.044 C 
ATOM      6  C   UNL     1     -11.460  -8.714  -5.768  1.00  0.00     0.002 C 
ATOM      7  C   UNL     1     -12.411 -10.375  -4.179  1.00  0.00     0.042 C 
ATOM      8  C   UNL     1     -11.440  -8.447  -7.270  1.00  0.00     0.008 C 
ATOM      9  C   UNL     1     -11.666  -7.533  -4.807  1.00  0.00    -0.000 C 
ATOM     10  C   UNL     1     -12.545  -9.280  -3.099  1.00  0.00     0.119 C 
ATOM     11  C   UNL     1     -11.599  -8.062  -3.338  1.00  0.00     0.031 C 
ATOM     12  C   UNL     1     -10.588  -6.462  -5.039  1.00  0.00     0.009 C 
ATOM     13  C   UNL     1     -11.691  -6.904  -2.261  1.00  0.00    -0.005 C 
ATOM     14  C   UNL     1     -10.708  -5.314  -4.048  1.00  0.00     0.032 C 
ATOM     15  C   UNL     1     -10.686  -5.801  -2.620  1.00  0.00    -0.060 C 
ATOM     16  C   UNL     1     -11.342  -7.509  -0.871  1.00  0.00     0.020 C 
ATOM     17  C   UNL     1      -9.839  -5.238  -1.742  1.00  0.00     0.047 C 
ATOM     18  C   UNL     1     -11.004  -6.465   0.181  1.00  0.00     0.081 C 
ATOM     19  C   UNL     1      -9.882  -5.584  -0.303  1.00  0.00     0.155 C 
ATOM     20  O   UNL     1      -9.061  -5.096   0.470  1.00  0.00    -0.295 OA
ATOM     21  C   UNL     1     -13.966  -9.340  -5.911  1.00  0.00     0.015 C 
ATOM     22  C   UNL     1     -13.086  -6.241  -2.183  1.00  0.00     0.016 C 
BRANCH   3  23
ATOM     23  O   UNL     1     -10.911 -11.534  -6.348  1.00  0.00    -0.381 OA
ATOM     24  H   UNL     1     -10.143 -11.224  -6.859  1.00  0.00     0.212 HD
ENDBRANCH   3  23
BRANCH  10  25
ATOM     25  O   UNL     1     -13.903  -8.870  -3.008  1.00  0.00    -0.393 OA
ATOM     26  H   UNL     1     -14.419  -9.626  -2.682  1.00  0.00     0.210 HD
ENDBRANCH  10  25
ENDBRANCH   2   3
BRANCH   2  27
ATOM     27  C   UNL     1     -13.113 -13.067  -6.293  1.00  0.00     0.234 C 
BRANCH  27  28
ATOM     28  O   UNL     1     -12.141 -13.991  -6.735  1.00  0.00    -0.388 OA
ATOM     29  H   UNL     1     -11.320 -13.496  -6.900  1.00  0.00     0.211 HD
ENDBRANCH  27  28
ENDBRANCH   2  27
TORSDOF 5
ENDMDL
MODEL 9
REMARK VINA RESULT:    -5.199      4.622     10.218
REMARK INTER + INTRA:          -6.429
REMARK INTER:                  -6.289
REMARK INTRA:                  -0.140
REMARK UNBOUND:                -0.167
REMARK SMILES C[C@]12CCC(=O)C=C1CC[C@@H]1[C@@H]2[C@@H](O)C[C@@]2(C)[C@H]1CC[C@]2(O)C(=O)CO
REMARK SMILES IDX 24 1 23 2 21 3 16 4 20 5 18 6 15 7 19 8 11 9 13 10 12 11
REMARK SMILES IDX 10 12 2 13 9 14 8 15 3 16 7 17 4 18 5 19 6 20 17 21 1 22
REMARK SMILES IDX 22 23 14 25 25 27 26 28
REMARK H PARENT 22 24 14 26 26 29
ROOT
ATOM      1  O   UNL     1      -5.337  -1.394  -5.882  1.00  0.00    -0.294 OA
ATOM      2  C   UNL     1      -6.058  -1.915  -5.032  1.00  0.00     0.190 C 
ENDROOT
BRANCH   2   3
ATOM      3  C   UNL     1      -7.551  -1.929  -5.178  1.00  0.00     0.131 C 
ATOM      4  C   UNL     1      -8.145  -3.346  -5.405  1.00  0.00     0.009 C 
ATOM      5  C   UNL     1      -8.059  -1.106  -6.383  1.00  0.00     0.044 C 
ATOM      6  C   UNL     1      -9.552  -2.954  -5.907  1.00  0.00     0.002 C 
ATOM      7  C   UNL     1      -8.331  -4.212  -4.143  1.00  0.00     0.042 C 
ATOM      8  C   UNL     1      -9.268  -1.879  -6.953  1.00  0.00     0.008 C 
ATOM      9  C   UNL     1     -10.423  -4.157  -6.299  1.00  0.00    -0.000 C 
ATOM     10  C   UNL     1      -9.239  -5.440  -4.376  1.00  0.00     0.119 C 
ATOM     11  C   UNL     1     -10.600  -5.079  -5.048  1.00  0.00     0.031 C 
ATOM     12  C   UNL     1     -11.793  -3.682  -6.810  1.00  0.00     0.009 C 
ATOM     13  C   UNL     1     -11.575  -6.298  -5.314  1.00  0.00    -0.005 C 
ATOM     14  C   UNL     1     -12.715  -4.849  -7.127  1.00  0.00     0.032 C 
ATOM     15  C   UNL     1     -12.872  -5.777  -5.948  1.00  0.00    -0.060 C 
ATOM     16  C   UNL     1     -11.885  -6.974  -3.947  1.00  0.00     0.020 C 
ATOM     17  C   UNL     1     -14.104  -6.127  -5.540  1.00  0.00     0.047 C 
ATOM     18  C   UNL     1     -13.096  -7.894  -3.983  1.00  0.00     0.081 C 
ATOM     19  C   UNL     1     -14.303  -7.144  -4.482  1.00  0.00     0.155 C 
ATOM     20  O   UNL     1     -15.438  -7.406  -4.090  1.00  0.00    -0.295 OA
ATOM     21  C   UNL     1      -7.302  -4.099  -6.471  1.00  0.00     0.015 C 
ATOM     22  C   UNL     1     -10.991  -7.358  -6.276  1.00  0.00     0.016 C 
BRANCH   3  23
ATOM     23  O   UNL     1      -8.042  -1.351  -3.972  1.00  0.00    -0.381 OA
ATOM     24  H   UNL     1      -8.972  -1.101  -4.108  1.00  0.00     0.212 HD
ENDBRANCH   3  23
BRANCH  10  25
ATOM     25  O   UNL     1      -8.530  -6.412  -5.133  1.00  0.00    -0.393 OA
ATOM     26  H   UNL     1      -8.811  -6.329  -6.060  1.00  0.00     0.210 HD
ENDBRANCH  10  25
ENDBRANCH   2   3
BRANCH   2  27
ATOM     27  C   UNL     1      -5.500  -2.576  -3.789  1.00  0.00     0.234 C 
BRANCH  27  28
ATOM     28  O   UNL     1      -5.653  -1.734  -2.666  1.00  0.00    -0.388 OA
ATOM     29  H   UNL     1      -6.049  -0.901  -2.976  1.00  0.00     0.211 HD
ENDBRANCH  27  28
ENDBRANCH   2  27
TORSDOF 5
ENDMDL
