MODEL 1
REMARK VINA RESULT:    -4.541      0.000      0.000
REMARK INTER + INTRA:          -5.528
REMARK INTER:                  -5.470
REMARK INTRA:                  -0.058
REMARK UNBOUND:                -0.058
REMARK SMILES NCCc1ccc(O)c(O)c1
REMARK SMILES IDX 3 1 4 2 9 3 11 4 7 5 6 6 5 7 10 8 8 10 2 12 1 13
REMARK H PARENT 10 9 8 11 1 14 1 15
ROOT
ATOM      1  C   UNL     1      -9.128  13.700   2.371  1.00  0.00     0.050 C 
ENDROOT
BRANCH   1   2
ATOM      2  C   UNL     1      -7.802  14.139   2.893  1.00  0.00    -0.043 A 
ATOM      3  C   UNL     1      -5.799  13.685   4.165  1.00  0.00     0.157 A 
ATOM      4  C   UNL     1      -7.039  13.274   3.676  1.00  0.00     0.054 A 
ATOM      5  C   UNL     1      -5.322  14.963   3.872  1.00  0.00     0.157 A 
ATOM      6  C   UNL     1      -6.086  15.829   3.089  1.00  0.00     0.050 A 
ATOM      7  C   UNL     1      -7.325  15.418   2.599  1.00  0.00     0.008 A 
BRANCH   3   8
ATOM      8  O   UNL     1      -5.063  12.830   4.929  1.00  0.00    -0.504 OA
ATOM      9  H   UNL     1      -4.480  12.319   4.340  1.00  0.00     0.293 HD
ENDBRANCH   3   8
BRANCH   5  10
ATOM     10  O   UNL     1      -4.113  15.376   4.344  1.00  0.00    -0.504 OA
ATOM     11  H   UNL     1      -3.859  16.196   3.887  1.00  0.00     0.293 HD
ENDBRANCH   5  10
ENDBRANCH   1   2
BRANCH   1  12
ATOM     12  C   UNL     1      -9.018  12.441   1.500  1.00  0.00     0.082 C 
BRANCH  12  13
ATOM     13  N   UNL     1     -10.325  11.838   1.261  1.00  0.00    -0.330 NA
ATOM     14  H   UNL     1     -10.204  10.926   0.823  1.00  0.00     0.118 HD
ATOM     15  H   UNL     1     -10.843  12.403   0.590  1.00  0.00     0.118 HD
ENDBRANCH  12  13
ENDBRANCH   1  12
TORSDOF 5
ENDMDL
MODEL 2
REMARK VINA RESULT:    -4.512      0.895      2.064
REMARK INTER + INTRA:          -5.493
REMARK INTER:                  -5.438
REMARK INTRA:                  -0.055
REMARK UNBOUND:                -0.058
REMARK SMILES NCCc1ccc(O)c(O)c1
REMARK SMILES IDX 3 1 4 2 9 3 11 4 7 5 6 6 5 7 10 8 8 10 2 12 1 13
REMARK H PARENT 10 9 8 11 1 14 1 15
ROOT
ATOM      1  C   UNL     1      -9.017  13.649   2.572  1.00  0.00     0.050 C 
ENDROOT
BRANCH   1   2
ATOM      2  C   UNL     1      -7.669  14.117   3.004  1.00  0.00    -0.043 A 
ATOM      3  C   UNL     1      -5.970  15.834   3.068  1.00  0.00     0.157 A 
ATOM      4  C   UNL     1      -7.232  15.397   2.664  1.00  0.00     0.054 A 
ATOM      5  C   UNL     1      -5.145  14.990   3.812  1.00  0.00     0.157 A 
ATOM      6  C   UNL     1      -5.582  13.710   4.153  1.00  0.00     0.050 A 
ATOM      7  C   UNL     1      -6.844  13.273   3.750  1.00  0.00     0.008 A 
BRANCH   3   8
ATOM      8  O   UNL     1      -5.555  17.086   2.729  1.00  0.00    -0.504 OA
ATOM      9  H   UNL     1      -5.569  17.640   3.529  1.00  0.00     0.293 HD
ENDBRANCH   3   8
BRANCH   5  10
ATOM     10  O   UNL     1      -3.911  15.405   4.213  1.00  0.00    -0.504 OA
ATOM     11  H   UNL     1      -3.393  14.632   4.493  1.00  0.00     0.293 HD
ENDBRANCH   5  10
ENDBRANCH   1   2
BRANCH   1  12
ATOM     12  C   UNL     1      -8.932  12.547   1.507  1.00  0.00     0.082 C 
BRANCH  12  13
ATOM     13  N   UNL     1     -10.211  11.863   1.340  1.00  0.00    -0.330 NA
ATOM     14  H   UNL     1     -10.469  11.408   2.215  1.00  0.00     0.118 HD
ATOM     15  H   UNL     1     -10.110  11.115   0.656  1.00  0.00     0.118 HD
ENDBRANCH  12  13
ENDBRANCH   1  12
TORSDOF 5
ENDMDL
MODEL 3
REMARK VINA RESULT:    -4.204      3.509      4.968
REMARK INTER + INTRA:          -5.122
REMARK INTER:                  -5.120
REMARK INTRA:                  -0.002
REMARK UNBOUND:                -0.058
REMARK SMILES NCCc1ccc(O)c(O)c1
REMARK SMILES IDX 3 1 4 2 9 3 11 4 7 5 6 6 5 7 10 8 8 10 2 12 1 13
REMARK H PARENT 10 9 8 11 1 14 1 15
ROOT
ATOM      1  C   UNL     1      -4.117  15.291   4.168  1.00  0.00     0.050 C 
ENDROOT
BRANCH   1   2
ATOM      2  C   UNL     1      -5.486  14.944   3.689  1.00  0.00    -0.043 A 
ATOM      3  C   UNL     1      -7.579  15.602   2.678  1.00  0.00     0.157 A 
ATOM      4  C   UNL     1      -6.299  15.927   3.125  1.00  0.00     0.054 A 
ATOM      5  C   UNL     1      -8.048  14.293   2.796  1.00  0.00     0.157 A 
ATOM      6  C   UNL     1      -7.236  13.310   3.361  1.00  0.00     0.050 A 
ATOM      7  C   UNL     1      -5.955  13.635   3.807  1.00  0.00     0.008 A 
BRANCH   3   8
ATOM      8  O   UNL     1      -8.363  16.571   2.128  1.00  0.00    -0.504 OA
ATOM      9  H   UNL     1      -8.059  16.730   1.217  1.00  0.00     0.293 HD
ENDBRANCH   3   8
BRANCH   5  10
ATOM     10  O   UNL     1      -9.297  13.964   2.363  1.00  0.00    -0.504 OA
ATOM     11  H   UNL     1      -9.243  13.668   1.438  1.00  0.00     0.293 HD
ENDBRANCH   5  10
ENDBRANCH   1   2
BRANCH   1  12
ATOM     12  C   UNL     1      -3.678  16.686   3.701  1.00  0.00     0.082 C 
BRANCH  12  13
ATOM     13  N   UNL     1      -3.073  16.640   2.374  1.00  0.00    -0.330 NA
ATOM     14  H   UNL     1      -2.553  15.769   2.267  1.00  0.00     0.118 HD
ATOM     15  H   UNL     1      -2.387  17.387   2.286  1.00  0.00     0.118 HD
ENDBRANCH  12  13
ENDBRANCH   1  12
TORSDOF 5
ENDMDL
MODEL 4
REMARK VINA RESULT:    -4.183      1.316      1.535
REMARK INTER + INTRA:          -5.097
REMARK INTER:                  -5.026
REMARK INTRA:                  -0.071
REMARK UNBOUND:                -0.058
REMARK SMILES NCCc1ccc(O)c(O)c1
REMARK SMILES IDX 3 1 4 2 9 3 11 4 7 5 6 6 5 7 10 8 8 10 2 12 1 13
REMARK H PARENT 10 9 8 11 1 14 1 15
ROOT
ATOM      1  C   UNL     1      -9.174  13.988   2.594  1.00  0.00     0.050 C 
ENDROOT
BRANCH   1   2
ATOM      2  C   UNL     1      -7.780  14.317   3.010  1.00  0.00    -0.043 A 
ATOM      3  C   UNL     1      -5.752  13.728   4.184  1.00  0.00     0.157 A 
ATOM      4  C   UNL     1      -7.055  13.420   3.795  1.00  0.00     0.054 A 
ATOM      5  C   UNL     1      -5.172  14.934   3.789  1.00  0.00     0.157 A 
ATOM      6  C   UNL     1      -5.897  15.831   3.003  1.00  0.00     0.050 A 
ATOM      7  C   UNL     1      -7.200  15.523   2.613  1.00  0.00     0.008 A 
BRANCH   3   8
ATOM      8  O   UNL     1      -5.055  12.844   4.951  1.00  0.00    -0.504 OA
ATOM      9  H   UNL     1      -4.109  13.064   4.888  1.00  0.00     0.293 HD
ENDBRANCH   3   8
BRANCH   5  10
ATOM     10  O   UNL     1      -3.900  15.247   4.162  1.00  0.00    -0.504 OA
ATOM     11  H   UNL     1      -3.933  15.868   4.909  1.00  0.00     0.293 HD
ENDBRANCH   5  10
ENDBRANCH   1   2
BRANCH   1  12
ATOM     12  C   UNL     1     -10.218  14.759   3.414  1.00  0.00     0.082 C 
BRANCH  12  13
ATOM     13  N   UNL     1     -11.220  15.381   2.554  1.00  0.00    -0.330 NA
ATOM     14  H   UNL     1     -10.756  15.951   1.848  1.00  0.00     0.118 HD
ATOM     15  H   UNL     1     -11.786  16.025   3.103  1.00  0.00     0.118 HD
ENDBRANCH  12  13
ENDBRANCH   1  12
TORSDOF 5
ENDMDL
MODEL 5
REMARK VINA RESULT:    -4.069      9.752     10.874
REMARK INTER + INTRA:          -4.960
REMARK INTER:                  -4.870
REMARK INTRA:                  -0.090
REMARK UNBOUND:                -0.058
REMARK SMILES NCCc1ccc(O)c(O)c1
REMARK SMILES IDX 3 1 4 2 9 3 11 4 7 5 6 6 5 7 10 8 8 10 2 12 1 13
REMARK H PARENT 10 9 8 11 1 14 1 15
ROOT
ATOM      1  C   UNL     1       3.806  10.359   7.581  1.00  0.00     0.050 C 
ENDROOT
BRANCH   1   2
ATOM      2  C   UNL     1       2.902  11.545   7.550  1.00  0.00    -0.043 A 
ATOM      3  C   UNL     1       0.796  12.586   8.111  1.00  0.00     0.157 A 
ATOM      4  C   UNL     1       1.641  11.477   8.142  1.00  0.00     0.054 A 
ATOM      5  C   UNL     1       1.211  13.763   7.487  1.00  0.00     0.157 A 
ATOM      6  C   UNL     1       2.472  13.831   6.895  1.00  0.00     0.050 A 
ATOM      7  C   UNL     1       3.318  12.722   6.926  1.00  0.00     0.008 A 
BRANCH   3   8
ATOM      8  O   UNL     1      -0.433  12.508   8.693  1.00  0.00    -0.504 OA
ATOM      9  H   UNL     1      -0.672  13.392   9.023  1.00  0.00     0.293 HD
ENDBRANCH   3   8
BRANCH   5  10
ATOM     10  O   UNL     1       0.395  14.853   7.451  1.00  0.00    -0.504 OA
ATOM     11  H   UNL     1       0.035  15.008   8.341  1.00  0.00     0.293 HD
ENDBRANCH   5  10
ENDBRANCH   1   2
BRANCH   1  12
ATOM     12  C   UNL     1       3.257   9.238   8.475  1.00  0.00     0.082 C 
BRANCH  12  13
ATOM     13  N   UNL     1       2.868   8.070   7.691  1.00  0.00    -0.330 NA
ATOM     14  H   UNL     1       3.132   7.221   8.191  1.00  0.00     0.118 HD
ATOM     15  H   UNL     1       3.394   8.055   6.819  1.00  0.00     0.118 HD
ENDBRANCH  12  13
ENDBRANCH   1  12
TORSDOF 5
ENDMDL
MODEL 6
REMARK VINA RESULT:    -3.971      3.164      4.509
REMARK INTER + INTRA:          -4.841
REMARK INTER:                  -4.733
REMARK INTRA:                  -0.108
REMARK UNBOUND:                -0.058
REMARK SMILES NCCc1ccc(O)c(O)c1
REMARK SMILES IDX 3 1 4 2 9 3 11 4 7 5 6 6 5 7 10 8 8 10 2 12 1 13
REMARK H PARENT 10 9 8 11 1 14 1 15
ROOT
ATOM      1  C   UNL     1      -4.829  17.242   4.434  1.00  0.00     0.050 C 
ENDROOT
BRANCH   1   2
ATOM      2  C   UNL     1      -5.715  16.117   4.015  1.00  0.00    -0.043 A 
ATOM      3  C   UNL     1      -6.320  13.781   4.117  1.00  0.00     0.157 A 
ATOM      4  C   UNL     1      -5.493  14.832   4.510  1.00  0.00     0.054 A 
ATOM      5  C   UNL     1      -7.370  14.014   3.227  1.00  0.00     0.157 A 
ATOM      6  C   UNL     1      -7.592  15.299   2.733  1.00  0.00     0.050 A 
ATOM      7  C   UNL     1      -6.765  16.351   3.127  1.00  0.00     0.008 A 
BRANCH   3   8
ATOM      8  O   UNL     1      -6.094  12.530   4.607  1.00  0.00    -0.504 OA
ATOM      9  H   UNL     1      -5.556  12.041   3.960  1.00  0.00     0.293 HD
ENDBRANCH   3   8
BRANCH   5  10
ATOM     10  O   UNL     1      -8.186  12.996   2.836  1.00  0.00    -0.504 OA
ATOM     11  H   UNL     1      -9.109  13.244   3.013  1.00  0.00     0.293 HD
ENDBRANCH   5  10
ENDBRANCH   1   2
BRANCH   1  12
ATOM     12  C   UNL     1      -3.362  16.995   4.055  1.00  0.00     0.082 C 
BRANCH  12  13
ATOM     13  N   UNL     1      -3.191  16.906   2.608  1.00  0.00    -0.330 NA
ATOM     14  H   UNL     1      -2.322  17.367   2.339  1.00  0.00     0.118 HD
ATOM     15  H   UNL     1      -3.936  17.424   2.145  1.00  0.00     0.118 HD
ENDBRANCH  12  13
ENDBRANCH   1  12
TORSDOF 5
ENDMDL
MODEL 7
REMARK VINA RESULT:    -3.940      7.554      8.703
REMARK INTER + INTRA:          -4.805
REMARK INTER:                  -4.746
REMARK INTRA:                  -0.059
REMARK UNBOUND:                -0.058
REMARK SMILES NCCc1ccc(O)c(O)c1
REMARK SMILES IDX 3 1 4 2 9 3 11 4 7 5 6 6 5 7 10 8 8 10 2 12 1 13
REMARK H PARENT 10 9 8 11 1 14 1 15
ROOT
ATOM      1  C   UNL     1     -14.254  11.839   2.757  1.00  0.00     0.050 C 
ENDROOT
BRANCH   1   2
ATOM      2  C   UNL     1     -14.461  11.349   4.150  1.00  0.00    -0.043 A 
ATOM      3  C   UNL     1     -14.374  11.724   6.535  1.00  0.00     0.157 A 
ATOM      4  C   UNL     1     -14.182  12.183   5.232  1.00  0.00     0.054 A 
ATOM      5  C   UNL     1     -14.845  10.429   6.756  1.00  0.00     0.157 A 
ATOM      6  C   UNL     1     -15.124   9.595   5.674  1.00  0.00     0.050 A 
ATOM      7  C   UNL     1     -14.933  10.054   4.371  1.00  0.00     0.008 A 
BRANCH   3   8
ATOM      8  O   UNL     1     -14.098  12.549   7.584  1.00  0.00    -0.504 OA
ATOM      9  H   UNL     1     -13.293  12.225   8.024  1.00  0.00     0.293 HD
ENDBRANCH   3   8
BRANCH   5  10
ATOM     10  O   UNL     1     -15.038   9.969   8.024  1.00  0.00    -0.504 OA
ATOM     11  H   UNL     1     -15.740  10.492   8.446  1.00  0.00     0.293 HD
ENDBRANCH   5  10
ENDBRANCH   1   2
BRANCH   1  12
ATOM     12  C   UNL     1     -13.272  10.957   1.973  1.00  0.00     0.082 C 
BRANCH  12  13
ATOM     13  N   UNL     1     -12.326  11.760   1.205  1.00  0.00    -0.330 NA
ATOM     14  H   UNL     1     -12.115  12.618   1.715  1.00  0.00     0.118 HD
ATOM     15  H   UNL     1     -12.761  12.054   0.332  1.00  0.00     0.118 HD
ENDBRANCH  12  13
ENDBRANCH   1  12
TORSDOF 5
ENDMDL
MODEL 8
REMARK VINA RESULT:    -3.875      7.628      8.418
REMARK INTER + INTRA:          -4.727
REMARK INTER:                  -4.641
REMARK INTRA:                  -0.085
REMARK UNBOUND:                -0.058
REMARK SMILES NCCc1ccc(O)c(O)c1
REMARK SMILES IDX 3 1 4 2 9 3 11 4 7 5 6 6 5 7 10 8 8 10 2 12 1 13
REMARK H PARENT 10 9 8 11 1 14 1 15
ROOT
ATOM      1  C   UNL     1     -14.519   9.531   5.646  1.00  0.00     0.050 C 
ENDROOT
BRANCH   1   2
ATOM      2  C   UNL     1     -14.279  10.614   4.650  1.00  0.00    -0.043 A 
ATOM      3  C   UNL     1     -13.709  11.304   2.406  1.00  0.00     0.157 A 
ATOM      4  C   UNL     1     -13.935  10.291   3.337  1.00  0.00     0.054 A 
ATOM      5  C   UNL     1     -13.827  12.642   2.787  1.00  0.00     0.157 A 
ATOM      6  C   UNL     1     -14.171  12.965   4.099  1.00  0.00     0.050 A 
ATOM      7  C   UNL     1     -14.397  11.952   5.031  1.00  0.00     0.008 A 
BRANCH   3   8
ATOM      8  O   UNL     1     -13.375  10.976   1.126  1.00  0.00    -0.504 OA
ATOM      9  H   UNL     1     -13.275  11.798   0.616  1.00  0.00     0.293 HD
ENDBRANCH   3   8
BRANCH   5  10
ATOM     10  O   UNL     1     -13.609  13.640   1.886  1.00  0.00    -0.504 OA
ATOM     11  H   UNL     1     -14.407  14.192   1.827  1.00  0.00     0.293 HD
ENDBRANCH   5  10
ENDBRANCH   1   2
BRANCH   1  12
ATOM     12  C   UNL     1     -15.525   8.490   5.137  1.00  0.00     0.082 C 
BRANCH  12  13
ATOM     13  N   UNL     1     -14.944   7.152   5.107  1.00  0.00    -0.330 NA
ATOM     14  H   UNL     1     -14.080   7.145   5.649  1.00  0.00     0.118 HD
ATOM     15  H   UNL     1     -14.675   6.919   4.153  1.00  0.00     0.118 HD
ENDBRANCH  12  13
ENDBRANCH   1  12
TORSDOF 5
ENDMDL
MODEL 9
REMARK VINA RESULT:    -3.852      3.745      4.746
REMARK INTER + INTRA:          -4.699
REMARK INTER:                  -4.641
REMARK INTRA:                  -0.058
REMARK UNBOUND:                -0.058
REMARK SMILES NCCc1ccc(O)c(O)c1
REMARK SMILES IDX 3 1 4 2 9 3 11 4 7 5 6 6 5 7 10 8 8 10 2 12 1 13
REMARK H PARENT 10 9 8 11 1 14 1 15
ROOT
ATOM      1  C   UNL     1      -5.674  13.858   4.146  1.00  0.00     0.050 C 
ENDROOT
BRANCH   1   2
ATOM      2  C   UNL     1      -7.104  14.026   3.757  1.00  0.00    -0.043 A 
ATOM      3  C   UNL     1      -9.007  13.347   2.433  1.00  0.00     0.157 A 
ATOM      4  C   UNL     1      -7.670  13.188   2.796  1.00  0.00     0.054 A 
ATOM      5  C   UNL     1      -9.779  14.344   3.029  1.00  0.00     0.157 A 
ATOM      6  C   UNL     1      -9.213  15.182   3.990  1.00  0.00     0.050 A 
ATOM      7  C   UNL     1      -7.877  15.023   4.355  1.00  0.00     0.008 A 
BRANCH   3   8
ATOM      8  O   UNL     1      -9.548  12.522   1.493  1.00  0.00    -0.504 OA
ATOM      9  H   UNL     1      -9.604  11.626   1.868  1.00  0.00     0.293 HD
ENDBRANCH   3   8
BRANCH   5  10
ATOM     10  O   UNL     1     -11.086  14.509   2.683  1.00  0.00    -0.504 OA
ATOM     11  H   UNL     1     -11.443  15.282   3.152  1.00  0.00     0.293 HD
ENDBRANCH   5  10
ENDBRANCH   1   2
BRANCH   1  12
ATOM     12  C   UNL     1      -4.855  15.133   3.902  1.00  0.00     0.082 C 
BRANCH  12  13
ATOM     13  N   UNL     1      -3.516  15.027   4.472  1.00  0.00    -0.330 NA
ATOM     14  H   UNL     1      -3.354  14.070   4.784  1.00  0.00     0.118 HD
ATOM     15  H   UNL     1      -3.455  15.606   5.307  1.00  0.00     0.118 HD
ENDBRANCH  12  13
ENDBRANCH   1  12
TORSDOF 5
ENDMDL
