MODEL 1
REMARK VINA RESULT:    -5.579      0.000      0.000
REMARK INTER + INTRA:          -6.809
REMARK INTER:                  -6.721
REMARK INTRA:                  -0.088
REMARK UNBOUND:                -0.088
REMARK SMILES NCCc1ccc(O)c(O)c1
REMARK SMILES IDX 3 1 4 2 9 3 11 4 7 5 6 6 5 7 10 8 8 10 2 12 1 13
REMARK H PARENT 10 9 8 11 1 14 1 15
ROOT
ATOM      1  C   UNL     1      21.575  -1.921  -7.303  1.00  0.00     0.050 C 
ENDROOT
BRANCH   1   2
ATOM      2  C   UNL     1      20.537  -2.149  -6.257  1.00  0.00    -0.043 A 
ATOM      3  C   UNL     1      18.229  -2.519  -5.645  1.00  0.00     0.157 A 
ATOM      4  C   UNL     1      19.200  -2.306  -6.623  1.00  0.00     0.054 A 
ATOM      5  C   UNL     1      18.595  -2.574  -4.299  1.00  0.00     0.157 A 
ATOM      6  C   UNL     1      19.932  -2.417  -3.933  1.00  0.00     0.050 A 
ATOM      7  C   UNL     1      20.903  -2.205  -4.911  1.00  0.00     0.008 A 
BRANCH   3   8
ATOM      8  O   UNL     1      16.927  -2.671  -6.015  1.00  0.00    -0.504 OA
ATOM      9  H   UNL     1      16.761  -3.617  -6.166  1.00  0.00     0.293 HD
ENDBRANCH   3   8
BRANCH   5  10
ATOM     10  O   UNL     1      17.656  -2.781  -3.334  1.00  0.00    -0.504 OA
ATOM     11  H   UNL     1      16.850  -3.133  -3.748  1.00  0.00     0.293 HD
ENDBRANCH   5  10
ENDBRANCH   1   2
BRANCH   1  12
ATOM     12  C   UNL     1      21.590  -0.466  -7.794  1.00  0.00     0.082 C 
BRANCH  12  13
ATOM     13  N   UNL     1      22.516   0.352  -7.018  1.00  0.00    -0.330 NA
ATOM     14  H   UNL     1      23.403  -0.141  -6.917  1.00  0.00     0.118 HD
ATOM     15  H   UNL     1      22.155   0.472  -6.073  1.00  0.00     0.118 HD
ENDBRANCH  12  13
ENDBRANCH   1  12
TORSDOF 5
ENDMDL
MODEL 2
REMARK VINA RESULT:    -5.133      1.421      2.584
REMARK INTER + INTRA:          -6.271
REMARK INTER:                  -6.302
REMARK INTRA:                   0.031
REMARK UNBOUND:                -0.088
REMARK SMILES NCCc1ccc(O)c(O)c1
REMARK SMILES IDX 3 1 4 2 9 3 11 4 7 5 6 6 5 7 10 8 8 10 2 12 1 13
REMARK H PARENT 10 9 8 11 1 14 1 15
ROOT
ATOM      1  C   UNL     1      22.277  -2.475  -4.118  1.00  0.00     0.050 C 
ENDROOT
BRANCH   1   2
ATOM      2  C   UNL     1      20.838  -2.472  -4.509  1.00  0.00    -0.043 A 
ATOM      3  C   UNL     1      18.506  -2.672  -3.907  1.00  0.00     0.157 A 
ATOM      4  C   UNL     1      19.852  -2.673  -3.542  1.00  0.00     0.054 A 
ATOM      5  C   UNL     1      18.145  -2.470  -5.240  1.00  0.00     0.157 A 
ATOM      6  C   UNL     1      19.131  -2.270  -6.207  1.00  0.00     0.050 A 
ATOM      7  C   UNL     1      20.477  -2.270  -5.841  1.00  0.00     0.008 A 
BRANCH   3   8
ATOM      8  O   UNL     1      17.553  -2.868  -2.954  1.00  0.00    -0.504 OA
ATOM      9  H   UNL     1      16.738  -3.166  -3.394  1.00  0.00     0.293 HD
ENDBRANCH   3   8
BRANCH   5  10
ATOM     10  O   UNL     1      16.834  -2.466  -5.610  1.00  0.00    -0.504 OA
ATOM     11  H   UNL     1      16.753  -2.865  -6.493  1.00  0.00     0.293 HD
ENDBRANCH   5  10
ENDBRANCH   1   2
BRANCH   1  12
ATOM     12  C   UNL     1      22.971  -1.149  -4.459  1.00  0.00     0.082 C 
BRANCH  12  13
ATOM     13  N   UNL     1      22.150  -0.002  -4.083  1.00  0.00    -0.330 NA
ATOM     14  H   UNL     1      21.417   0.134  -4.778  1.00  0.00     0.118 HD
ATOM     15  H   UNL     1      22.716   0.844  -4.105  1.00  0.00     0.118 HD
ENDBRANCH  12  13
ENDBRANCH   1  12
TORSDOF 5
ENDMDL
MODEL 3
REMARK VINA RESULT:    -5.102      4.392      5.044
REMARK INTER + INTRA:          -6.234
REMARK INTER:                  -6.146
REMARK INTRA:                  -0.088
REMARK UNBOUND:                -0.088
REMARK SMILES NCCc1ccc(O)c(O)c1
REMARK SMILES IDX 3 1 4 2 9 3 11 4 7 5 6 6 5 7 10 8 8 10 2 12 1 13
REMARK H PARENT 10 9 8 11 1 14 1 15
ROOT
ATOM      1  C   UNL     1      19.869  -1.145  -8.150  1.00  0.00     0.050 C 
ENDROOT
BRANCH   1   2
ATOM      2  C   UNL     1      21.273  -1.124  -7.647  1.00  0.00    -0.043 A 
ATOM      3  C   UNL     1      23.340   0.066  -7.263  1.00  0.00     0.157 A 
ATOM      4  C   UNL     1      22.027   0.046  -7.733  1.00  0.00     0.054 A 
ATOM      5  C   UNL     1      23.900  -1.085  -6.707  1.00  0.00     0.157 A 
ATOM      6  C   UNL     1      23.145  -2.255  -6.621  1.00  0.00     0.050 A 
ATOM      7  C   UNL     1      21.832  -2.275  -7.090  1.00  0.00     0.008 A 
BRANCH   3   8
ATOM      8  O   UNL     1      24.067   1.215  -7.352  1.00  0.00    -0.504 OA
ATOM      9  H   UNL     1      24.028   1.669  -6.493  1.00  0.00     0.293 HD
ENDBRANCH   3   8
BRANCH   5  10
ATOM     10  O   UNL     1      25.181  -1.078  -6.244  1.00  0.00    -0.504 OA
ATOM     11  H   UNL     1      25.628  -1.889  -6.540  1.00  0.00     0.293 HD
ENDBRANCH   5  10
ENDBRANCH   1   2
BRANCH   1  12
ATOM     12  C   UNL     1      19.564   0.051  -9.062  1.00  0.00     0.082 C 
BRANCH  12  13
ATOM     13  N   UNL     1      18.301   0.688  -8.705  1.00  0.00    -0.330 NA
ATOM     14  H   UNL     1      17.717   0.025  -8.196  1.00  0.00     0.118 HD
ATOM     15  H   UNL     1      17.785   0.920  -9.552  1.00  0.00     0.118 HD
ENDBRANCH  12  13
ENDBRANCH   1  12
TORSDOF 5
ENDMDL
MODEL 4
REMARK VINA RESULT:    -5.007      1.484      2.357
REMARK INTER + INTRA:          -6.120
REMARK INTER:                  -6.065
REMARK INTRA:                  -0.055
REMARK UNBOUND:                -0.088
REMARK SMILES NCCc1ccc(O)c(O)c1
REMARK SMILES IDX 3 1 4 2 9 3 11 4 7 5 6 6 5 7 10 8 8 10 2 12 1 13
REMARK H PARENT 10 9 8 11 1 14 1 15
ROOT
ATOM      1  C   UNL     1      20.961  -2.032  -7.677  1.00  0.00     0.050 C 
ENDROOT
BRANCH   1   2
ATOM      2  C   UNL     1      20.247  -2.190  -6.377  1.00  0.00    -0.043 A 
ATOM      3  C   UNL     1      20.306  -2.483  -3.980  1.00  0.00     0.157 A 
ATOM      4  C   UNL     1      20.973  -2.334  -5.195  1.00  0.00     0.054 A 
ATOM      5  C   UNL     1      18.910  -2.488  -3.946  1.00  0.00     0.157 A 
ATOM      6  C   UNL     1      18.184  -2.344  -5.128  1.00  0.00     0.050 A 
ATOM      7  C   UNL     1      18.852  -2.194  -6.343  1.00  0.00     0.008 A 
BRANCH   3   8
ATOM      8  O   UNL     1      21.026  -2.622  -2.832  1.00  0.00    -0.504 OA
ATOM      9  H   UNL     1      20.653  -3.364  -2.325  1.00  0.00     0.293 HD
ENDBRANCH   3   8
BRANCH   5  10
ATOM     10  O   UNL     1      18.247  -2.632  -2.765  1.00  0.00    -0.504 OA
ATOM     11  H   UNL     1      17.690  -3.428  -2.811  1.00  0.00     0.293 HD
ENDBRANCH   5  10
ENDBRANCH   1   2
BRANCH   1  12
ATOM     12  C   UNL     1      21.183  -0.556  -8.038  1.00  0.00     0.082 C 
BRANCH  12  13
ATOM     13  N   UNL     1      20.085  -0.031  -8.843  1.00  0.00    -0.330 NA
ATOM     14  H   UNL     1      20.043  -0.532  -9.731  1.00  0.00     0.118 HD
ATOM     15  H   UNL     1      20.271   0.942  -9.081  1.00  0.00     0.118 HD
ENDBRANCH  12  13
ENDBRANCH   1  12
TORSDOF 5
ENDMDL
MODEL 5
REMARK VINA RESULT:    -4.966      1.790      2.112
REMARK INTER + INTRA:          -6.070
REMARK INTER:                  -5.990
REMARK INTRA:                  -0.080
REMARK UNBOUND:                -0.088
REMARK SMILES NCCc1ccc(O)c(O)c1
REMARK SMILES IDX 3 1 4 2 9 3 11 4 7 5 6 6 5 7 10 8 8 10 2 12 1 13
REMARK H PARENT 10 9 8 11 1 14 1 15
ROOT
ATOM      1  C   UNL     1      20.320  -1.598  -8.274  1.00  0.00     0.050 C 
ENDROOT
BRANCH   1   2
ATOM      2  C   UNL     1      20.387  -1.942  -6.824  1.00  0.00    -0.043 A 
ATOM      3  C   UNL     1      19.280  -2.321  -4.711  1.00  0.00     0.157 A 
ATOM      4  C   UNL     1      19.217  -2.000  -6.066  1.00  0.00     0.054 A 
ATOM      5  C   UNL     1      20.513  -2.583  -4.111  1.00  0.00     0.157 A 
ATOM      6  C   UNL     1      21.682  -2.525  -4.869  1.00  0.00     0.050 A 
ATOM      7  C   UNL     1      21.620  -2.205  -6.225  1.00  0.00     0.008 A 
BRANCH   3   8
ATOM      8  O   UNL     1      18.130  -2.375  -3.981  1.00  0.00    -0.504 OA
ATOM      9  H   UNL     1      17.831  -3.301  -3.949  1.00  0.00     0.293 HD
ENDBRANCH   3   8
BRANCH   5  10
ATOM     10  O   UNL     1      20.587  -2.898  -2.788  1.00  0.00    -0.504 OA
ATOM     11  H   UNL     1      21.518  -3.040  -2.549  1.00  0.00     0.293 HD
ENDBRANCH   5  10
ENDBRANCH   1   2
BRANCH   1  12
ATOM     12  C   UNL     1      20.235  -0.083  -8.505  1.00  0.00     0.082 C 
BRANCH  12  13
ATOM     13  N   UNL     1      18.887   0.326  -8.885  1.00  0.00    -0.330 NA
ATOM     14  H   UNL     1      18.928   1.220  -9.374  1.00  0.00     0.118 HD
ATOM     15  H   UNL     1      18.333   0.492  -8.047  1.00  0.00     0.118 HD
ENDBRANCH  12  13
ENDBRANCH   1  12
TORSDOF 5
ENDMDL
MODEL 6
REMARK VINA RESULT:    -4.921      4.086      5.582
REMARK INTER + INTRA:          -6.016
REMARK INTER:                  -5.926
REMARK INTRA:                  -0.090
REMARK UNBOUND:                -0.088
REMARK SMILES NCCc1ccc(O)c(O)c1
REMARK SMILES IDX 3 1 4 2 9 3 11 4 7 5 6 6 5 7 10 8 8 10 2 12 1 13
REMARK H PARENT 10 9 8 11 1 14 1 15
ROOT
ATOM      1  C   UNL     1      16.609  -4.025  -1.526  1.00  0.00     0.050 C 
ENDROOT
BRANCH   1   2
ATOM      2  C   UNL     1      17.355  -3.474  -2.694  1.00  0.00    -0.043 A 
ATOM      3  C   UNL     1      17.450  -2.922  -5.044  1.00  0.00     0.157 A 
ATOM      4  C   UNL     1      16.752  -3.436  -3.951  1.00  0.00     0.054 A 
ATOM      5  C   UNL     1      18.752  -2.447  -4.879  1.00  0.00     0.157 A 
ATOM      6  C   UNL     1      19.354  -2.485  -3.622  1.00  0.00     0.050 A 
ATOM      7  C   UNL     1      18.656  -2.998  -2.529  1.00  0.00     0.008 A 
BRANCH   3   8
ATOM      8  O   UNL     1      16.851  -2.890  -6.267  1.00  0.00    -0.504 OA
ATOM      9  H   UNL     1      17.544  -2.929  -6.949  1.00  0.00     0.293 HD
ENDBRANCH   3   8
BRANCH   5  10
ATOM     10  O   UNL     1      19.444  -1.942  -5.939  1.00  0.00    -0.504 OA
ATOM     11  H   UNL     1      20.186  -2.536  -6.143  1.00  0.00     0.293 HD
ENDBRANCH   5  10
ENDBRANCH   1   2
BRANCH   1  12
ATOM     12  C   UNL     1      15.230  -4.568  -1.925  1.00  0.00     0.082 C 
BRANCH  12  13
ATOM     13  N   UNL     1      15.068  -5.963  -1.529  1.00  0.00    -0.330 NA
ATOM     14  H   UNL     1      14.471  -6.441  -2.203  1.00  0.00     0.118 HD
ATOM     15  H   UNL     1      14.576  -6.009  -0.638  1.00  0.00     0.118 HD
ENDBRANCH  12  13
ENDBRANCH   1  12
TORSDOF 5
ENDMDL
MODEL 7
REMARK VINA RESULT:    -4.910      3.659      4.926
REMARK INTER + INTRA:          -6.003
REMARK INTER:                  -5.947
REMARK INTRA:                  -0.056
REMARK UNBOUND:                -0.088
REMARK SMILES NCCc1ccc(O)c(O)c1
REMARK SMILES IDX 3 1 4 2 9 3 11 4 7 5 6 6 5 7 10 8 8 10 2 12 1 13
REMARK H PARENT 10 9 8 11 1 14 1 15
ROOT
ATOM      1  C   UNL     1      19.290  -2.717  -6.593  1.00  0.00     0.050 C 
ENDROOT
BRANCH   1   2
ATOM      2  C   UNL     1      20.436  -1.770  -6.712  1.00  0.00    -0.043 A 
ATOM      3  C   UNL     1      22.306  -0.612  -5.712  1.00  0.00     0.157 A 
ATOM      4  C   UNL     1      21.235  -1.499  -5.601  1.00  0.00     0.054 A 
ATOM      5  C   UNL     1      22.577   0.005  -6.934  1.00  0.00     0.157 A 
ATOM      6  C   UNL     1      21.778  -0.266  -8.045  1.00  0.00     0.050 A 
ATOM      7  C   UNL     1      20.708  -1.154  -7.934  1.00  0.00     0.008 A 
BRANCH   3   8
ATOM      8  O   UNL     1      23.080  -0.356  -4.621  1.00  0.00    -0.504 OA
ATOM      9  H   UNL     1      23.909   0.053  -4.923  1.00  0.00     0.293 HD
ENDBRANCH   3   8
BRANCH   5  10
ATOM     10  O   UNL     1      23.620   0.873  -7.055  1.00  0.00    -0.504 OA
ATOM     11  H   UNL     1      24.427   0.370  -7.259  1.00  0.00     0.293 HD
ENDBRANCH   5  10
ENDBRANCH   1   2
BRANCH   1  12
ATOM     12  C   UNL     1      18.315  -2.309  -5.480  1.00  0.00     0.082 C 
BRANCH  12  13
ATOM     13  N   UNL     1      16.953  -2.738  -5.777  1.00  0.00    -0.330 NA
ATOM     14  H   UNL     1      16.378  -2.649  -4.939  1.00  0.00     0.118 HD
ATOM     15  H   UNL     1      16.952  -3.730  -6.010  1.00  0.00     0.118 HD
ENDBRANCH  12  13
ENDBRANCH   1  12
TORSDOF 5
ENDMDL
MODEL 8
REMARK VINA RESULT:    -4.795      3.743      4.530
REMARK INTER + INTRA:          -5.865
REMARK INTER:                  -5.787
REMARK INTRA:                  -0.078
REMARK UNBOUND:                -0.088
REMARK SMILES NCCc1ccc(O)c(O)c1
REMARK SMILES IDX 3 1 4 2 9 3 11 4 7 5 6 6 5 7 10 8 8 10 2 12 1 13
REMARK H PARENT 10 9 8 11 1 14 1 15
ROOT
ATOM      1  C   UNL     1      19.171  -2.143  -6.371  1.00  0.00     0.050 C 
ENDROOT
BRANCH   1   2
ATOM      2  C   UNL     1      20.557  -2.304  -5.845  1.00  0.00    -0.043 A 
ATOM      3  C   UNL     1      22.943  -2.350  -6.216  1.00  0.00     0.157 A 
ATOM      4  C   UNL     1      21.647  -2.198  -6.708  1.00  0.00     0.054 A 
ATOM      5  C   UNL     1      23.150  -2.609  -4.860  1.00  0.00     0.157 A 
ATOM      6  C   UNL     1      22.059  -2.716  -3.997  1.00  0.00     0.050 A 
ATOM      7  C   UNL     1      20.763  -2.562  -4.489  1.00  0.00     0.008 A 
BRANCH   3   8
ATOM      8  O   UNL     1      24.001  -2.244  -7.069  1.00  0.00    -0.504 OA
ATOM      9  H   UNL     1      24.493  -3.083  -7.052  1.00  0.00     0.293 HD
ENDBRANCH   3   8
BRANCH   5  10
ATOM     10  O   UNL     1      24.411  -2.760  -4.368  1.00  0.00    -0.504 OA
ATOM     11  H   UNL     1      24.549  -2.116  -3.652  1.00  0.00     0.293 HD
ENDBRANCH   5  10
ENDBRANCH   1   2
BRANCH   1  12
ATOM     12  C   UNL     1      18.109  -2.428  -5.299  1.00  0.00     0.082 C 
BRANCH  12  13
ATOM     13  N   UNL     1      16.895  -2.988  -5.884  1.00  0.00    -0.330 NA
ATOM     14  H   UNL     1      17.141  -3.747  -6.518  1.00  0.00     0.118 HD
ATOM     15  H   UNL     1      16.437  -2.282  -6.458  1.00  0.00     0.118 HD
ENDBRANCH  12  13
ENDBRANCH   1  12
TORSDOF 5
ENDMDL
MODEL 9
REMARK VINA RESULT:    -4.705      3.025      4.354
REMARK INTER + INTRA:          -5.756
REMARK INTER:                  -5.669
REMARK INTRA:                  -0.087
REMARK UNBOUND:                -0.088
REMARK SMILES NCCc1ccc(O)c(O)c1
REMARK SMILES IDX 3 1 4 2 9 3 11 4 7 5 6 6 5 7 10 8 8 10 2 12 1 13
REMARK H PARENT 10 9 8 11 1 14 1 15
ROOT
ATOM      1  C   UNL     1      19.743  -2.799  -2.335  1.00  0.00     0.050 C 
ENDROOT
BRANCH   1   2
ATOM      2  C   UNL     1      20.019  -2.568  -3.782  1.00  0.00    -0.043 A 
ATOM      3  C   UNL     1      19.228  -2.075  -6.011  1.00  0.00     0.157 A 
ATOM      4  C   UNL     1      18.970  -2.290  -4.658  1.00  0.00     0.054 A 
ATOM      5  C   UNL     1      20.537  -2.139  -6.490  1.00  0.00     0.157 A 
ATOM      6  C   UNL     1      21.587  -2.417  -5.615  1.00  0.00     0.050 A 
ATOM      7  C   UNL     1      21.329  -2.631  -4.261  1.00  0.00     0.008 A 
BRANCH   3   8
ATOM      8  O   UNL     1      18.194  -1.804  -6.856  1.00  0.00    -0.504 OA
ATOM      9  H   UNL     1      17.434  -1.510  -6.325  1.00  0.00     0.293 HD
ENDBRANCH   3   8
BRANCH   5  10
ATOM     10  O   UNL     1      20.803  -1.931  -7.810  1.00  0.00    -0.504 OA
ATOM     11  H   UNL     1      21.733  -2.154  -7.985  1.00  0.00     0.293 HD
ENDBRANCH   5  10
ENDBRANCH   1   2
BRANCH   1  12
ATOM     12  C   UNL     1      18.290  -3.226  -2.085  1.00  0.00     0.082 C 
BRANCH  12  13
ATOM     13  N   UNL     1      17.704  -2.503  -0.961  1.00  0.00    -0.330 NA
ATOM     14  H   UNL     1      16.743  -2.812  -0.821  1.00  0.00     0.118 HD
ATOM     15  H   UNL     1      17.647  -1.511  -1.187  1.00  0.00     0.118 HD
ENDBRANCH  12  13
ENDBRANCH   1  12
TORSDOF 5
ENDMDL
