MODEL 1
REMARK VINA RESULT:    -4.743      0.000      0.000
REMARK INTER + INTRA:          -5.804
REMARK INTER:                  -5.713
REMARK INTRA:                  -0.091
REMARK UNBOUND:                -0.091
REMARK SMILES NCCc1ccc(O)c(O)c1
REMARK SMILES IDX 3 1 4 2 9 3 11 4 7 5 6 6 5 7 10 8 8 10 2 12 1 13
REMARK H PARENT 10 9 8 11 1 14 1 15
ROOT
ATOM      1  C   UNL     1       2.916  16.249   4.828  1.00  0.00     0.050 C 
ENDROOT
BRANCH   1   2
ATOM      2  C   UNL     1       2.082  16.234   3.592  1.00  0.00    -0.043 A 
ATOM      3  C   UNL     1       0.399  17.255   2.191  1.00  0.00     0.157 A 
ATOM      4  C   UNL     1       1.180  17.269   3.346  1.00  0.00     0.054 A 
ATOM      5  C   UNL     1       0.520  16.205   1.280  1.00  0.00     0.157 A 
ATOM      6  C   UNL     1       1.423  15.170   1.526  1.00  0.00     0.050 A 
ATOM      7  C   UNL     1       2.204  15.184   2.681  1.00  0.00     0.008 A 
BRANCH   3   8
ATOM      8  O   UNL     1      -0.478  18.272   1.962  1.00  0.00    -0.504 OA
ATOM      9  H   UNL     1      -0.335  18.958   2.637  1.00  0.00     0.293 HD
ENDBRANCH   3   8
BRANCH   5  10
ATOM     10  O   UNL     1      -0.236  16.180   0.147  1.00  0.00    -0.504 OA
ATOM     11  H   UNL     1      -0.503  15.263  -0.034  1.00  0.00     0.293 HD
ENDBRANCH   5  10
ENDBRANCH   1   2
BRANCH   1  12
ATOM     12  C   UNL     1       3.633  14.911   5.057  1.00  0.00     0.082 C 
BRANCH  12  13
ATOM     13  N   UNL     1       5.050  15.106   5.345  1.00  0.00    -0.330 NA
ATOM     14  H   UNL     1       5.588  15.018   4.483  1.00  0.00     0.118 HD
ATOM     15  H   UNL     1       5.379  14.360   5.956  1.00  0.00     0.118 HD
ENDBRANCH  12  13
ENDBRANCH   1  12
TORSDOF 5
ENDMDL
MODEL 2
REMARK VINA RESULT:    -4.642      2.097      3.103
REMARK INTER + INTRA:          -5.682
REMARK INTER:                  -5.602
REMARK INTRA:                  -0.080
REMARK UNBOUND:                -0.091
REMARK SMILES NCCc1ccc(O)c(O)c1
REMARK SMILES IDX 3 1 4 2 9 3 11 4 7 5 6 6 5 7 10 8 8 10 2 12 1 13
REMARK H PARENT 10 9 8 11 1 14 1 15
ROOT
ATOM      1  C   UNL     1       1.835  16.998   4.058  1.00  0.00     0.050 C 
ENDROOT
BRANCH   1   2
ATOM      2  C   UNL     1       0.673  17.330   3.185  1.00  0.00    -0.043 A 
ATOM      3  C   UNL     1      -0.651  16.901   1.210  1.00  0.00     0.157 A 
ATOM      4  C   UNL     1       0.436  16.590   2.027  1.00  0.00     0.054 A 
ATOM      5  C   UNL     1      -1.502  17.954   1.551  1.00  0.00     0.157 A 
ATOM      6  C   UNL     1      -1.265  18.694   2.709  1.00  0.00     0.050 A 
ATOM      7  C   UNL     1      -0.178  18.383   3.526  1.00  0.00     0.008 A 
BRANCH   3   8
ATOM      8  O   UNL     1      -0.872  16.170   0.082  1.00  0.00    -0.504 OA
ATOM      9  H   UNL     1      -1.801  16.289  -0.182  1.00  0.00     0.293 HD
ENDBRANCH   3   8
BRANCH   5  10
ATOM     10  O   UNL     1      -2.566  18.267   0.761  1.00  0.00    -0.504 OA
ATOM     11  H   UNL     1      -2.798  17.493   0.221  1.00  0.00     0.293 HD
ENDBRANCH   5  10
ENDBRANCH   1   2
BRANCH   1  12
ATOM     12  C   UNL     1       2.897  18.107   4.052  1.00  0.00     0.082 C 
BRANCH  12  13
ATOM     13  N   UNL     1       3.393  18.367   2.705  1.00  0.00    -0.330 NA
ATOM     14  H   UNL     1       2.885  19.153   2.300  1.00  0.00     0.118 HD
ATOM     15  H   UNL     1       3.191  17.567   2.107  1.00  0.00     0.118 HD
ENDBRANCH  12  13
ENDBRANCH   1  12
TORSDOF 5
ENDMDL
MODEL 3
REMARK VINA RESULT:    -4.356      8.306      9.314
REMARK INTER + INTRA:          -5.338
REMARK INTER:                  -5.247
REMARK INTRA:                  -0.090
REMARK UNBOUND:                -0.091
REMARK SMILES NCCc1ccc(O)c(O)c1
REMARK SMILES IDX 3 1 4 2 9 3 11 4 7 5 6 6 5 7 10 8 8 10 2 12 1 13
REMARK H PARENT 10 9 8 11 1 14 1 15
ROOT
ATOM      1  C   UNL     1       0.912   9.137  11.441  1.00  0.00     0.050 C 
ENDROOT
BRANCH   1   2
ATOM      2  C   UNL     1       0.625   9.542  10.034  1.00  0.00    -0.043 A 
ATOM      3  C   UNL     1      -0.859  10.522   8.400  1.00  0.00     0.157 A 
ATOM      4  C   UNL     1      -0.591  10.145   9.716  1.00  0.00     0.054 A 
ATOM      5  C   UNL     1       0.089  10.295   7.402  1.00  0.00     0.157 A 
ATOM      6  C   UNL     1       1.306   9.692   7.721  1.00  0.00     0.050 A 
ATOM      7  C   UNL     1       1.574   9.315   9.036  1.00  0.00     0.008 A 
BRANCH   3   8
ATOM      8  O   UNL     1      -2.051  11.111   8.102  1.00  0.00    -0.504 OA
ATOM      9  H   UNL     1      -2.390  10.716   7.280  1.00  0.00     0.293 HD
ENDBRANCH   3   8
BRANCH   5  10
ATOM     10  O   UNL     1      -0.161  10.659   6.114  1.00  0.00    -0.504 OA
ATOM     11  H   UNL     1      -0.050  11.622   6.030  1.00  0.00     0.293 HD
ENDBRANCH   5  10
ENDBRANCH   1   2
BRANCH   1  12
ATOM     12  C   UNL     1       1.985   8.043  11.520  1.00  0.00     0.082 C 
BRANCH  12  13
ATOM     13  N   UNL     1       1.391   6.710  11.528  1.00  0.00    -0.330 NA
ATOM     14  H   UNL     1       1.199   6.417  10.571  1.00  0.00     0.118 HD
ATOM     15  H   UNL     1       0.487   6.743  11.996  1.00  0.00     0.118 HD
ENDBRANCH  12  13
ENDBRANCH   1  12
TORSDOF 5
ENDMDL
MODEL 4
REMARK VINA RESULT:    -4.268      3.647      4.622
REMARK INTER + INTRA:          -5.233
REMARK INTER:                  -5.160
REMARK INTRA:                  -0.072
REMARK UNBOUND:                -0.091
REMARK SMILES NCCc1ccc(O)c(O)c1
REMARK SMILES IDX 3 1 4 2 9 3 11 4 7 5 6 6 5 7 10 8 8 10 2 12 1 13
REMARK H PARENT 10 9 8 11 1 14 1 15
ROOT
ATOM      1  C   UNL     1      -0.792  16.572   1.265  1.00  0.00     0.050 C 
ENDROOT
BRANCH   1   2
ATOM      2  C   UNL     1       0.402  16.151   2.054  1.00  0.00    -0.043 A 
ATOM      3  C   UNL     1       1.981  16.556   3.837  1.00  0.00     0.157 A 
ATOM      4  C   UNL     1       0.864  16.950   3.100  1.00  0.00     0.054 A 
ATOM      5  C   UNL     1       2.636  15.364   3.528  1.00  0.00     0.157 A 
ATOM      6  C   UNL     1       2.174  14.565   2.483  1.00  0.00     0.050 A 
ATOM      7  C   UNL     1       1.056  14.958   1.746  1.00  0.00     0.008 A 
BRANCH   3   8
ATOM      8  O   UNL     1       2.423  17.345   4.856  1.00  0.00    -0.504 OA
ATOM      9  H   UNL     1       2.631  18.224   4.495  1.00  0.00     0.293 HD
ENDBRANCH   3   8
BRANCH   5  10
ATOM     10  O   UNL     1       3.727  14.968   4.241  1.00  0.00    -0.504 OA
ATOM     11  H   UNL     1       3.743  13.997   4.283  1.00  0.00     0.293 HD
ENDBRANCH   5  10
ENDBRANCH   1   2
BRANCH   1  12
ATOM     12  C   UNL     1      -1.408  17.873   1.799  1.00  0.00     0.082 C 
BRANCH  12  13
ATOM     13  N   UNL     1      -2.431  18.390   0.897  1.00  0.00    -0.330 NA
ATOM     14  H   UNL     1      -2.018  18.573  -0.017  1.00  0.00     0.118 HD
ATOM     15  H   UNL     1      -2.761  19.292   1.238  1.00  0.00     0.118 HD
ENDBRANCH  12  13
ENDBRANCH   1  12
TORSDOF 5
ENDMDL
MODEL 5
REMARK VINA RESULT:    -4.231      3.769      5.047
REMARK INTER + INTRA:          -5.187
REMARK INTER:                  -5.112
REMARK INTRA:                  -0.075
REMARK UNBOUND:                -0.091
REMARK SMILES NCCc1ccc(O)c(O)c1
REMARK SMILES IDX 3 1 4 2 9 3 11 4 7 5 6 6 5 7 10 8 8 10 2 12 1 13
REMARK H PARENT 10 9 8 11 1 14 1 15
ROOT
ATOM      1  C   UNL     1       1.052  15.504   1.669  1.00  0.00     0.050 C 
ENDROOT
BRANCH   1   2
ATOM      2  C   UNL     1       1.757  15.828   2.943  1.00  0.00    -0.043 A 
ATOM      3  C   UNL     1       3.498  15.355   4.550  1.00  0.00     0.157 A 
ATOM      4  C   UNL     1       2.839  15.052   3.358  1.00  0.00     0.054 A 
ATOM      5  C   UNL     1       3.074  16.434   5.327  1.00  0.00     0.157 A 
ATOM      6  C   UNL     1       1.992  17.209   4.912  1.00  0.00     0.050 A 
ATOM      7  C   UNL     1       1.334  16.907   3.720  1.00  0.00     0.008 A 
BRANCH   3   8
ATOM      8  O   UNL     1       4.554  14.590   4.945  1.00  0.00    -0.504 OA
ATOM      9  H   UNL     1       4.279  13.657   4.930  1.00  0.00     0.293 HD
ENDBRANCH   3   8
BRANCH   5  10
ATOM     10  O   UNL     1       3.709  16.739   6.492  1.00  0.00    -0.504 OA
ATOM     11  H   UNL     1       4.534  17.213   6.288  1.00  0.00     0.293 HD
ENDBRANCH   5  10
ENDBRANCH   1   2
BRANCH   1  12
ATOM     12  C   UNL     1      -0.284  16.249   1.543  1.00  0.00     0.082 C 
BRANCH  12  13
ATOM     13  N   UNL     1      -0.770  16.247   0.167  1.00  0.00    -0.330 NA
ATOM     14  H   UNL     1      -1.456  16.992   0.047  1.00  0.00     0.118 HD
ATOM     15  H   UNL     1      -1.268  15.378  -0.017  1.00  0.00     0.118 HD
ENDBRANCH  12  13
ENDBRANCH   1  12
TORSDOF 5
ENDMDL
MODEL 6
REMARK VINA RESULT:    -4.229      7.061      7.761
REMARK INTER + INTRA:          -5.185
REMARK INTER:                  -5.114
REMARK INTRA:                  -0.071
REMARK UNBOUND:                -0.091
REMARK SMILES NCCc1ccc(O)c(O)c1
REMARK SMILES IDX 3 1 4 2 9 3 11 4 7 5 6 6 5 7 10 8 8 10 2 12 1 13
REMARK H PARENT 10 9 8 11 1 14 1 15
ROOT
ATOM      1  C   UNL     1       3.638  11.110   7.920  1.00  0.00     0.050 C 
ENDROOT
BRANCH   1   2
ATOM      2  C   UNL     1       2.154  10.975   7.985  1.00  0.00    -0.043 A 
ATOM      3  C   UNL     1       0.104  11.007   9.264  1.00  0.00     0.157 A 
ATOM      4  C   UNL     1       1.492  11.134   9.203  1.00  0.00     0.054 A 
ATOM      5  C   UNL     1      -0.622  10.721   8.106  1.00  0.00     0.157 A 
ATOM      6  C   UNL     1       0.041  10.563   6.889  1.00  0.00     0.050 A 
ATOM      7  C   UNL     1       1.428  10.691   6.828  1.00  0.00     0.008 A 
BRANCH   3   8
ATOM      8  O   UNL     1      -0.531  11.164  10.458  1.00  0.00    -0.504 OA
ATOM      9  H   UNL     1      -0.543  12.112  10.676  1.00  0.00     0.293 HD
ENDBRANCH   3   8
BRANCH   5  10
ATOM     10  O   UNL     1      -1.977  10.595   8.153  1.00  0.00    -0.504 OA
ATOM     11  H   UNL     1      -2.352  11.375   8.597  1.00  0.00     0.293 HD
ENDBRANCH   5  10
ENDBRANCH   1   2
BRANCH   1  12
ATOM     12  C   UNL     1       4.127  11.442   6.504  1.00  0.00     0.082 C 
BRANCH  12  13
ATOM     13  N   UNL     1       5.584  11.471   6.432  1.00  0.00    -0.330 NA
ATOM     14  H   UNL     1       5.956  11.934   7.261  1.00  0.00     0.118 HD
ATOM     15  H   UNL     1       5.875  12.042   5.641  1.00  0.00     0.118 HD
ENDBRANCH  12  13
ENDBRANCH   1  12
TORSDOF 5
ENDMDL
MODEL 7
REMARK VINA RESULT:    -4.158      9.611     11.092
REMARK INTER + INTRA:          -5.099
REMARK INTER:                  -5.024
REMARK INTRA:                  -0.075
REMARK UNBOUND:                -0.091
REMARK SMILES NCCc1ccc(O)c(O)c1
REMARK SMILES IDX 3 1 4 2 9 3 11 4 7 5 6 6 5 7 10 8 8 10 2 12 1 13
REMARK H PARENT 10 9 8 11 1 14 1 15
ROOT
ATOM      1  C   UNL     1       0.381  10.646   8.358  1.00  0.00     0.050 C 
ENDROOT
BRANCH   1   2
ATOM      2  C   UNL     1       1.048   9.757   9.352  1.00  0.00    -0.043 A 
ATOM      3  C   UNL     1       1.289   7.588  10.389  1.00  0.00     0.157 A 
ATOM      4  C   UNL     1       0.666   8.419   9.459  1.00  0.00     0.054 A 
ATOM      5  C   UNL     1       2.294   8.094  11.215  1.00  0.00     0.157 A 
ATOM      6  C   UNL     1       2.676   9.432  11.108  1.00  0.00     0.050 A 
ATOM      7  C   UNL     1       2.054  10.263  10.177  1.00  0.00     0.008 A 
BRANCH   3   8
ATOM      8  O   UNL     1       0.908   6.284  10.484  1.00  0.00    -0.504 OA
ATOM      9  H   UNL     1       1.595   5.733  10.069  1.00  0.00     0.293 HD
ENDBRANCH   3   8
BRANCH   5  10
ATOM     10  O   UNL     1       2.910   7.293  12.127  1.00  0.00    -0.504 OA
ATOM     11  H   UNL     1       3.807   7.631  12.291  1.00  0.00     0.293 HD
ENDBRANCH   5  10
ENDBRANCH   1   2
BRANCH   1  12
ATOM     12  C   UNL     1      -0.867  11.327   8.937  1.00  0.00     0.082 C 
BRANCH  12  13
ATOM     13  N   UNL     1      -2.071  10.949   8.206  1.00  0.00    -0.330 NA
ATOM     14  H   UNL     1      -2.369  11.725   7.615  1.00  0.00     0.118 HD
ATOM     15  H   UNL     1      -2.833  10.791   8.863  1.00  0.00     0.118 HD
ENDBRANCH  12  13
ENDBRANCH   1  12
TORSDOF 5
ENDMDL
MODEL 8
REMARK VINA RESULT:    -4.097      8.105      9.073
REMARK INTER + INTRA:          -5.026
REMARK INTER:                  -4.931
REMARK INTRA:                  -0.095
REMARK UNBOUND:                -0.091
REMARK SMILES NCCc1ccc(O)c(O)c1
REMARK SMILES IDX 3 1 4 2 9 3 11 4 7 5 6 6 5 7 10 8 8 10 2 12 1 13
REMARK H PARENT 10 9 8 11 1 14 1 15
ROOT
ATOM      1  C   UNL     1       2.838   9.828  10.307  1.00  0.00     0.050 C 
ENDROOT
BRANCH   1   2
ATOM      2  C   UNL     1       1.537  10.145   9.650  1.00  0.00    -0.043 A 
ATOM      3  C   UNL     1       0.215  10.411   7.646  1.00  0.00     0.157 A 
ATOM      4  C   UNL     1       1.431  10.114   8.260  1.00  0.00     0.054 A 
ATOM      5  C   UNL     1      -0.898  10.739   8.423  1.00  0.00     0.157 A 
ATOM      6  C   UNL     1      -0.792  10.769   9.813  1.00  0.00     0.050 A 
ATOM      7  C   UNL     1       0.424  10.472  10.427  1.00  0.00     0.008 A 
BRANCH   3   8
ATOM      8  O   UNL     1       0.124  10.377   6.287  1.00  0.00    -0.504 OA
ATOM      9  H   UNL     1      -0.364   9.575   6.033  1.00  0.00     0.293 HD
ENDBRANCH   3   8
BRANCH   5  10
ATOM     10  O   UNL     1      -2.091  11.030   7.835  1.00  0.00    -0.504 OA
ATOM     11  H   UNL     1      -2.063  10.749   6.905  1.00  0.00     0.293 HD
ENDBRANCH   5  10
ENDBRANCH   1   2
BRANCH   1  12
ATOM     12  C   UNL     1       2.648   9.109  11.649  1.00  0.00     0.082 C 
BRANCH  12  13
ATOM     13  N   UNL     1       2.843   7.669  11.518  1.00  0.00    -0.330 NA
ATOM     14  H   UNL     1       2.647   7.385  10.558  1.00  0.00     0.118 HD
ATOM     15  H   UNL     1       2.163   7.179  12.097  1.00  0.00     0.118 HD
ENDBRANCH  12  13
ENDBRANCH   1  12
TORSDOF 5
ENDMDL
MODEL 9
REMARK VINA RESULT:    -3.843      7.115      8.234
REMARK INTER + INTRA:          -4.720
REMARK INTER:                  -4.643
REMARK INTRA:                  -0.077
REMARK UNBOUND:                -0.091
REMARK SMILES NCCc1ccc(O)c(O)c1
REMARK SMILES IDX 3 1 4 2 9 3 11 4 7 5 6 6 5 7 10 8 8 10 2 12 1 13
REMARK H PARENT 10 9 8 11 1 14 1 15
ROOT
ATOM      1  C   UNL     1       3.438  11.074   6.563  1.00  0.00     0.050 C 
ENDROOT
BRANCH   1   2
ATOM      2  C   UNL     1       2.438  10.901   7.656  1.00  0.00    -0.043 A 
ATOM      3  C   UNL     1       0.164  10.505   8.368  1.00  0.00     0.157 A 
ATOM      4  C   UNL     1       1.099  10.666   7.346  1.00  0.00     0.054 A 
ATOM      5  C   UNL     1       0.569  10.579   9.702  1.00  0.00     0.157 A 
ATOM      6  C   UNL     1       1.908  10.813  10.012  1.00  0.00     0.050 A 
ATOM      7  C   UNL     1       2.843  10.974   8.990  1.00  0.00     0.008 A 
BRANCH   3   8
ATOM      8  O   UNL     1      -1.141  10.276   8.052  1.00  0.00    -0.504 OA
ATOM      9  H   UNL     1      -1.690  10.916   8.537  1.00  0.00     0.293 HD
ENDBRANCH   3   8
BRANCH   5  10
ATOM     10  O   UNL     1      -0.335  10.422  10.709  1.00  0.00    -0.504 OA
ATOM     11  H   UNL     1      -0.495   9.473  10.846  1.00  0.00     0.293 HD
ENDBRANCH   5  10
ENDBRANCH   1   2
BRANCH   1  12
ATOM     12  C   UNL     1       4.700  11.803   7.045  1.00  0.00     0.082 C 
BRANCH  12  13
ATOM     13  N   UNL     1       5.854  11.484   6.211  1.00  0.00    -0.330 NA
ATOM     14  H   UNL     1       6.456  12.304   6.134  1.00  0.00     0.118 HD
ATOM     15  H   UNL     1       5.543  11.277   5.264  1.00  0.00     0.118 HD
ENDBRANCH  12  13
ENDBRANCH   1  12
TORSDOF 5
ENDMDL
