MODEL 1
REMARK VINA RESULT:    -5.450      0.000      0.000
REMARK INTER + INTRA:          -6.620
REMARK INTER:                  -6.565
REMARK INTRA:                  -0.056
REMARK UNBOUND:                -0.056
REMARK SMILES NCCc1ccc(O)c(O)c1
REMARK SMILES IDX 3 1 4 2 9 3 11 4 7 5 6 6 5 7 10 8 8 10 2 12 1 13
REMARK H PARENT 10 9 8 11 1 14 1 15
ROOT
ATOM      1  C   UNL     1       3.392   7.569   6.755  1.00  0.00     0.050 C 
ENDROOT
BRANCH   1   2
ATOM      2  C   UNL     1       3.824   7.228   8.141  1.00  0.00    -0.043 A 
ATOM      3  C   UNL     1       3.854   5.690  10.005  1.00  0.00     0.157 A 
ATOM      4  C   UNL     1       3.450   6.010   8.709  1.00  0.00     0.054 A 
ATOM      5  C   UNL     1       4.631   6.590  10.735  1.00  0.00     0.157 A 
ATOM      6  C   UNL     1       5.005   7.809  10.168  1.00  0.00     0.050 A 
ATOM      7  C   UNL     1       4.602   8.127   8.871  1.00  0.00     0.008 A 
BRANCH   3   8
ATOM      8  O   UNL     1       3.483   4.497  10.548  1.00  0.00    -0.504 OA
ATOM      9  H   UNL     1       3.345   4.625  11.502  1.00  0.00     0.293 HD
ENDBRANCH   3   8
BRANCH   5  10
ATOM     10  O   UNL     1       5.031   6.290  12.002  1.00  0.00    -0.504 OA
ATOM     11  H   UNL     1       4.502   5.544  12.332  1.00  0.00     0.293 HD
ENDBRANCH   5  10
ENDBRANCH   1   2
BRANCH   1  12
ATOM     12  C   UNL     1       4.550   7.480   5.751  1.00  0.00     0.082 C 
BRANCH  12  13
ATOM     13  N   UNL     1       4.118   6.893   4.487  1.00  0.00    -0.330 NA
ATOM     14  H   UNL     1       3.160   6.554   4.579  1.00  0.00     0.118 HD
ATOM     15  H   UNL     1       4.685   6.072   4.281  1.00  0.00     0.118 HD
ENDBRANCH  12  13
ENDBRANCH   1  12
TORSDOF 5
ENDMDL
MODEL 2
REMARK VINA RESULT:    -5.389      3.704      4.747
REMARK INTER + INTRA:          -6.547
REMARK INTER:                  -6.473
REMARK INTRA:                  -0.075
REMARK UNBOUND:                -0.056
REMARK SMILES NCCc1ccc(O)c(O)c1
REMARK SMILES IDX 3 1 4 2 9 3 11 4 7 5 6 6 5 7 10 8 8 10 2 12 1 13
REMARK H PARENT 10 9 8 11 1 14 1 15
ROOT
ATOM      1  C   UNL     1       3.843   6.840   9.639  1.00  0.00     0.050 C 
ENDROOT
BRANCH   1   2
ATOM      2  C   UNL     1       4.270   7.078   8.230  1.00  0.00    -0.043 A 
ATOM      3  C   UNL     1       3.732   7.692   5.956  1.00  0.00     0.157 A 
ATOM      4  C   UNL     1       3.333   7.470   7.274  1.00  0.00     0.054 A 
ATOM      5  C   UNL     1       5.069   7.520   5.593  1.00  0.00     0.157 A 
ATOM      6  C   UNL     1       6.006   7.127   6.549  1.00  0.00     0.050 A 
ATOM      7  C   UNL     1       5.607   6.907   7.868  1.00  0.00     0.008 A 
BRANCH   3   8
ATOM      8  O   UNL     1       2.808   8.076   5.032  1.00  0.00    -0.504 OA
ATOM      9  H   UNL     1       2.884   9.037   4.904  1.00  0.00     0.293 HD
ENDBRANCH   3   8
BRANCH   5  10
ATOM     10  O   UNL     1       5.471   7.734   4.310  1.00  0.00    -0.504 OA
ATOM     11  H   UNL     1       5.963   8.572   4.268  1.00  0.00     0.293 HD
ENDBRANCH   5  10
ENDBRANCH   1   2
BRANCH   1  12
ATOM     12  C   UNL     1       2.879   5.651   9.758  1.00  0.00     0.082 C 
BRANCH  12  13
ATOM     13  N   UNL     1       3.515   4.508  10.405  1.00  0.00    -0.330 NA
ATOM     14  H   UNL     1       4.506   4.703  10.542  1.00  0.00     0.118 HD
ATOM     15  H   UNL     1       3.472   3.700   9.787  1.00  0.00     0.118 HD
ENDBRANCH  12  13
ENDBRANCH   1  12
TORSDOF 5
ENDMDL
MODEL 3
REMARK VINA RESULT:    -5.321      3.679      4.860
REMARK INTER + INTRA:          -6.466
REMARK INTER:                  -6.393
REMARK INTRA:                  -0.073
REMARK UNBOUND:                -0.056
REMARK SMILES NCCc1ccc(O)c(O)c1
REMARK SMILES IDX 3 1 4 2 9 3 11 4 7 5 6 6 5 7 10 8 8 10 2 12 1 13
REMARK H PARENT 10 9 8 11 1 14 1 15
ROOT
ATOM      1  C   UNL     1       4.277   6.498   9.541  1.00  0.00     0.050 C 
ENDROOT
BRANCH   1   2
ATOM      2  C   UNL     1       4.443   6.943   8.127  1.00  0.00    -0.043 A 
ATOM      3  C   UNL     1       5.841   7.249   6.180  1.00  0.00     0.157 A 
ATOM      4  C   UNL     1       5.685   6.833   7.502  1.00  0.00     0.054 A 
ATOM      5  C   UNL     1       4.753   7.777   5.483  1.00  0.00     0.157 A 
ATOM      6  C   UNL     1       3.511   7.887   6.108  1.00  0.00     0.050 A 
ATOM      7  C   UNL     1       3.356   7.470   7.429  1.00  0.00     0.008 A 
BRANCH   3   8
ATOM      8  O   UNL     1       7.059   7.136   5.581  1.00  0.00    -0.504 OA
ATOM      9  H   UNL     1       6.983   6.495   4.853  1.00  0.00     0.293 HD
ENDBRANCH   3   8
BRANCH   5  10
ATOM     10  O   UNL     1       4.892   8.187   4.191  1.00  0.00    -0.504 OA
ATOM     11  H   UNL     1       4.195   8.834   3.988  1.00  0.00     0.293 HD
ENDBRANCH   5  10
ENDBRANCH   1   2
BRANCH   1  12
ATOM     12  C   UNL     1       3.068   5.569   9.716  1.00  0.00     0.082 C 
BRANCH  12  13
ATOM     13  N   UNL     1       3.479   4.223  10.104  1.00  0.00    -0.330 NA
ATOM     14  H   UNL     1       3.313   4.091  11.102  1.00  0.00     0.118 HD
ATOM     15  H   UNL     1       4.484   4.123   9.973  1.00  0.00     0.118 HD
ENDBRANCH  12  13
ENDBRANCH   1  12
TORSDOF 5
ENDMDL
MODEL 4
REMARK VINA RESULT:    -4.949      1.133      2.260
REMARK INTER + INTRA:          -6.017
REMARK INTER:                  -6.001
REMARK INTRA:                  -0.016
REMARK UNBOUND:                -0.056
REMARK SMILES NCCc1ccc(O)c(O)c1
REMARK SMILES IDX 3 1 4 2 9 3 11 4 7 5 6 6 5 7 10 8 8 10 2 12 1 13
REMARK H PARENT 10 9 8 11 1 14 1 15
ROOT
ATOM      1  C   UNL     1       5.627   8.527   7.558  1.00  0.00     0.050 C 
ENDROOT
BRANCH   1   2
ATOM      2  C   UNL     1       4.989   7.484   8.411  1.00  0.00    -0.043 A 
ATOM      3  C   UNL     1       4.669   6.459  10.576  1.00  0.00     0.157 A 
ATOM      4  C   UNL     1       5.265   7.435   9.778  1.00  0.00     0.054 A 
ATOM      5  C   UNL     1       3.797   5.530  10.007  1.00  0.00     0.157 A 
ATOM      6  C   UNL     1       3.521   5.578   8.640  1.00  0.00     0.050 A 
ATOM      7  C   UNL     1       4.116   6.555   7.843  1.00  0.00     0.008 A 
BRANCH   3   8
ATOM      8  O   UNL     1       4.946   6.422  11.909  1.00  0.00    -0.504 OA
ATOM      9  H   UNL     1       4.709   5.541  12.247  1.00  0.00     0.293 HD
ENDBRANCH   3   8
BRANCH   5  10
ATOM     10  O   UNL     1       3.209   4.572  10.776  1.00  0.00    -0.504 OA
ATOM     11  H   UNL     1       3.901   4.026  11.186  1.00  0.00     0.293 HD
ENDBRANCH   5  10
ENDBRANCH   1   2
BRANCH   1  12
ATOM     12  C   UNL     1       5.499   8.208   6.062  1.00  0.00     0.082 C 
BRANCH  12  13
ATOM     13  N   UNL     1       6.570   7.327   5.608  1.00  0.00    -0.330 NA
ATOM     14  H   UNL     1       6.766   6.631   6.328  1.00  0.00     0.118 HD
ATOM     15  H   UNL     1       7.429   7.863   5.499  1.00  0.00     0.118 HD
ENDBRANCH  12  13
ENDBRANCH   1  12
TORSDOF 5
ENDMDL
MODEL 5
REMARK VINA RESULT:    -4.854      3.173      4.504
REMARK INTER + INTRA:          -5.903
REMARK INTER:                  -5.822
REMARK INTRA:                  -0.080
REMARK UNBOUND:                -0.056
REMARK SMILES NCCc1ccc(O)c(O)c1
REMARK SMILES IDX 3 1 4 2 9 3 11 4 7 5 6 6 5 7 10 8 8 10 2 12 1 13
REMARK H PARENT 10 9 8 11 1 14 1 15
ROOT
ATOM      1  C   UNL     1       5.405   8.611  12.345  1.00  0.00     0.050 C 
ENDROOT
BRANCH   1   2
ATOM      2  C   UNL     1       4.843   7.843  11.197  1.00  0.00    -0.043 A 
ATOM      3  C   UNL     1       3.897   5.807  10.305  1.00  0.00     0.157 A 
ATOM      4  C   UNL     1       4.422   6.526  11.378  1.00  0.00     0.054 A 
ATOM      5  C   UNL     1       3.794   6.406   9.048  1.00  0.00     0.157 A 
ATOM      6  C   UNL     1       4.216   7.723   8.867  1.00  0.00     0.050 A 
ATOM      7  C   UNL     1       4.740   8.442   9.941  1.00  0.00     0.008 A 
BRANCH   3   8
ATOM      8  O   UNL     1       3.489   4.522  10.494  1.00  0.00    -0.504 OA
ATOM      9  H   UNL     1       2.647   4.537  10.982  1.00  0.00     0.293 HD
ENDBRANCH   3   8
BRANCH   5  10
ATOM     10  O   UNL     1       3.283   5.714   7.992  1.00  0.00    -0.504 OA
ATOM     11  H   UNL     1       3.132   6.330   7.254  1.00  0.00     0.293 HD
ENDBRANCH   5  10
ENDBRANCH   1   2
BRANCH   1  12
ATOM     12  C   UNL     1       6.555   7.863  13.034  1.00  0.00     0.082 C 
BRANCH  12  13
ATOM     13  N   UNL     1       7.851   8.442  12.694  1.00  0.00    -0.330 NA
ATOM     14  H   UNL     1       8.430   7.736  12.239  1.00  0.00     0.118 HD
ATOM     15  H   UNL     1       8.344   8.698  13.548  1.00  0.00     0.118 HD
ENDBRANCH  12  13
ENDBRANCH   1  12
TORSDOF 5
ENDMDL
MODEL 6
REMARK VINA RESULT:    -4.814      3.363      3.954
REMARK INTER + INTRA:          -5.855
REMARK INTER:                  -5.843
REMARK INTRA:                  -0.012
REMARK UNBOUND:                -0.056
REMARK SMILES NCCc1ccc(O)c(O)c1
REMARK SMILES IDX 3 1 4 2 9 3 11 4 7 5 6 6 5 7 10 8 8 10 2 12 1 13
REMARK H PARENT 10 9 8 11 1 14 1 15
ROOT
ATOM      1  C   UNL     1       4.680   6.096   9.111  1.00  0.00     0.050 C 
ENDROOT
BRANCH   1   2
ATOM      2  C   UNL     1       4.714   7.173  10.142  1.00  0.00    -0.043 A 
ATOM      3  C   UNL     1       4.369   9.480  10.771  1.00  0.00     0.157 A 
ATOM      4  C   UNL     1       4.337   8.473   9.806  1.00  0.00     0.054 A 
ATOM      5  C   UNL     1       4.779   9.187  12.072  1.00  0.00     0.157 A 
ATOM      6  C   UNL     1       5.155   7.886  12.408  1.00  0.00     0.050 A 
ATOM      7  C   UNL     1       5.122   6.879  11.444  1.00  0.00     0.008 A 
BRANCH   3   8
ATOM      8  O   UNL     1       3.999  10.746  10.430  1.00  0.00    -0.504 OA
ATOM      9  H   UNL     1       3.151  10.944  10.864  1.00  0.00     0.293 HD
ENDBRANCH   3   8
BRANCH   5  10
ATOM     10  O   UNL     1       4.814  10.161  13.023  1.00  0.00    -0.504 OA
ATOM     11  H   UNL     1       4.011  10.705  12.949  1.00  0.00     0.293 HD
ENDBRANCH   5  10
ENDBRANCH   1   2
BRANCH   1  12
ATOM     12  C   UNL     1       3.370   5.297   9.151  1.00  0.00     0.082 C 
BRANCH  12  13
ATOM     13  N   UNL     1       3.438   4.205  10.117  1.00  0.00    -0.330 NA
ATOM     14  H   UNL     1       2.494   3.923  10.379  1.00  0.00     0.118 HD
ATOM     15  H   UNL     1       3.877   4.536  10.975  1.00  0.00     0.118 HD
ENDBRANCH  12  13
ENDBRANCH   1  12
TORSDOF 5
ENDMDL
MODEL 7
REMARK VINA RESULT:    -4.788      2.581      3.469
REMARK INTER + INTRA:          -5.823
REMARK INTER:                  -5.730
REMARK INTRA:                  -0.093
REMARK UNBOUND:                -0.056
REMARK SMILES NCCc1ccc(O)c(O)c1
REMARK SMILES IDX 3 1 4 2 9 3 11 4 7 5 6 6 5 7 10 8 8 10 2 12 1 13
REMARK H PARENT 10 9 8 11 1 14 1 15
ROOT
ATOM      1  C   UNL     1       6.107   9.089   8.482  1.00  0.00     0.050 C 
ENDROOT
BRANCH   1   2
ATOM      2  C   UNL     1       5.409   7.893   9.037  1.00  0.00    -0.043 A 
ATOM      3  C   UNL     1       4.291   6.787  10.871  1.00  0.00     0.157 A 
ATOM      4  C   UNL     1       4.942   7.905  10.351  1.00  0.00     0.054 A 
ATOM      5  C   UNL     1       4.107   5.655  10.076  1.00  0.00     0.157 A 
ATOM      6  C   UNL     1       4.575   5.642   8.762  1.00  0.00     0.050 A 
ATOM      7  C   UNL     1       5.225   6.761   8.242  1.00  0.00     0.008 A 
BRANCH   3   8
ATOM      8  O   UNL     1       3.839   6.812  12.156  1.00  0.00    -0.504 OA
ATOM      9  H   UNL     1       4.607   6.886  12.749  1.00  0.00     0.293 HD
ENDBRANCH   3   8
BRANCH   5  10
ATOM     10  O   UNL     1       3.473   4.556  10.572  1.00  0.00    -0.504 OA
ATOM     11  H   UNL     1       3.873   4.318  11.425  1.00  0.00     0.293 HD
ENDBRANCH   5  10
ENDBRANCH   1   2
BRANCH   1  12
ATOM     12  C   UNL     1       6.429  10.125   9.567  1.00  0.00     0.082 C 
BRANCH  12  13
ATOM     13  N   UNL     1       7.858  10.170   9.857  1.00  0.00    -0.330 NA
ATOM     14  H   UNL     1       8.030   9.776  10.782  1.00  0.00     0.118 HD
ATOM     15  H   UNL     1       8.166  11.140   9.906  1.00  0.00     0.118 HD
ENDBRANCH  12  13
ENDBRANCH   1  12
TORSDOF 5
ENDMDL
MODEL 8
REMARK VINA RESULT:    -4.747      3.282      4.102
REMARK INTER + INTRA:          -5.774
REMARK INTER:                  -5.703
REMARK INTRA:                  -0.071
REMARK UNBOUND:                -0.056
REMARK SMILES NCCc1ccc(O)c(O)c1
REMARK SMILES IDX 3 1 4 2 9 3 11 4 7 5 6 6 5 7 10 8 8 10 2 12 1 13
REMARK H PARENT 10 9 8 11 1 14 1 15
ROOT
ATOM      1  C   UNL     1       4.528   6.354   9.642  1.00  0.00     0.050 C 
ENDROOT
BRANCH   1   2
ATOM      2  C   UNL     1       4.725   7.414  10.673  1.00  0.00    -0.043 A 
ATOM      3  C   UNL     1       5.815   8.204  12.679  1.00  0.00     0.157 A 
ATOM      4  C   UNL     1       5.631   7.213  11.715  1.00  0.00     0.054 A 
ATOM      5  C   UNL     1       5.093   9.396  12.602  1.00  0.00     0.157 A 
ATOM      6  C   UNL     1       4.187   9.596  11.560  1.00  0.00     0.050 A 
ATOM      7  C   UNL     1       4.004   8.606  10.595  1.00  0.00     0.008 A 
BRANCH   3   8
ATOM      8  O   UNL     1       6.702   7.997  13.692  1.00  0.00    -0.504 OA
ATOM      9  H   UNL     1       6.578   7.092  14.027  1.00  0.00     0.293 HD
ENDBRANCH   3   8
BRANCH   5  10
ATOM     10  O   UNL     1       5.264  10.371  13.537  1.00  0.00    -0.504 OA
ATOM     11  H   UNL     1       6.021  10.138  14.102  1.00  0.00     0.293 HD
ENDBRANCH   5  10
ENDBRANCH   1   2
BRANCH   1  12
ATOM     12  C   UNL     1       3.202   5.604   9.832  1.00  0.00     0.082 C 
BRANCH  12  13
ATOM     13  N   UNL     1       3.423   4.194  10.136  1.00  0.00    -0.330 NA
ATOM     14  H   UNL     1       4.239   3.859   9.625  1.00  0.00     0.118 HD
ATOM     15  H   UNL     1       2.636   3.645   9.795  1.00  0.00     0.118 HD
ENDBRANCH  12  13
ENDBRANCH   1  12
TORSDOF 5
ENDMDL
MODEL 9
REMARK VINA RESULT:    -4.715      3.612      4.864
REMARK INTER + INTRA:          -5.735
REMARK INTER:                  -5.651
REMARK INTRA:                  -0.084
REMARK UNBOUND:                -0.056
REMARK SMILES NCCc1ccc(O)c(O)c1
REMARK SMILES IDX 3 1 4 2 9 3 11 4 7 5 6 6 5 7 10 8 8 10 2 12 1 13
REMARK H PARENT 10 9 8 11 1 14 1 15
ROOT
ATOM      1  C   UNL     1       4.510   6.369   9.667  1.00  0.00     0.050 C 
ENDROOT
BRANCH   1   2
ATOM      2  C   UNL     1       4.217   7.344   8.577  1.00  0.00    -0.043 A 
ATOM      3  C   UNL     1       4.331   9.588   7.690  1.00  0.00     0.157 A 
ATOM      4  C   UNL     1       4.606   8.677   8.709  1.00  0.00     0.054 A 
ATOM      5  C   UNL     1       3.666   9.166   6.537  1.00  0.00     0.157 A 
ATOM      6  C   UNL     1       3.278   7.833   6.405  1.00  0.00     0.050 A 
ATOM      7  C   UNL     1       3.553   6.922   7.424  1.00  0.00     0.008 A 
BRANCH   3   8
ATOM      8  O   UNL     1       4.717  10.887   7.830  1.00  0.00    -0.504 OA
ATOM      9  H   UNL     1       4.052  11.346   8.373  1.00  0.00     0.293 HD
ENDBRANCH   3   8
BRANCH   5  10
ATOM     10  O   UNL     1       3.393  10.046   5.535  1.00  0.00    -0.504 OA
ATOM     11  H   UNL     1       2.538   9.814   5.134  1.00  0.00     0.293 HD
ENDBRANCH   5  10
ENDBRANCH   1   2
BRANCH   1  12
ATOM     12  C   UNL     1       3.246   5.643  10.148  1.00  0.00     0.082 C 
BRANCH  12  13
ATOM     13  N   UNL     1       3.425   4.194  10.139  1.00  0.00    -0.330 NA
ATOM     14  H   UNL     1       4.368   3.966  10.454  1.00  0.00     0.118 HD
ATOM     15  H   UNL     1       3.359   3.849   9.183  1.00  0.00     0.118 HD
ENDBRANCH  12  13
ENDBRANCH   1  12
TORSDOF 5
ENDMDL
