MODEL 1
REMARK VINA RESULT:    -4.866      0.000      0.000
REMARK INTER + INTRA:          -5.929
REMARK INTER:                  -5.861
REMARK INTRA:                  -0.068
REMARK UNBOUND:                -0.068
REMARK SMILES NCCc1ccc(O)c(O)c1
REMARK SMILES IDX 3 1 4 2 9 3 11 4 7 5 6 6 5 7 10 8 8 10 2 12 1 13
REMARK H PARENT 10 9 8 11 1 14 1 15
ROOT
ATOM      1  C   UNL     1     -16.021   9.693  14.472  1.00  0.00     0.050 C 
ENDROOT
BRANCH   1   2
ATOM      2  C   UNL     1     -15.963  10.018  13.018  1.00  0.00    -0.043 A 
ATOM      3  C   UNL     1     -15.876  11.653  11.241  1.00  0.00     0.157 A 
ATOM      4  C   UNL     1     -15.929  11.349  12.601  1.00  0.00     0.054 A 
ATOM      5  C   UNL     1     -15.858  10.625  10.296  1.00  0.00     0.157 A 
ATOM      6  C   UNL     1     -15.892   9.295  10.713  1.00  0.00     0.050 A 
ATOM      7  C   UNL     1     -15.944   8.991  12.073  1.00  0.00     0.008 A 
BRANCH   3   8
ATOM      8  O   UNL     1     -15.842  12.956  10.846  1.00  0.00    -0.504 OA
ATOM      9  H   UNL     1     -16.256  13.497  11.541  1.00  0.00     0.293 HD
ENDBRANCH   3   8
BRANCH   5  10
ATOM     10  O   UNL     1     -15.806  10.909   8.965  1.00  0.00    -0.504 OA
ATOM     11  H   UNL     1     -15.150  11.611   8.817  1.00  0.00     0.293 HD
ENDBRANCH   5  10
ENDBRANCH   1   2
BRANCH   1  12
ATOM     12  C   UNL     1     -17.091   8.639  14.786  1.00  0.00     0.082 C 
BRANCH  12  13
ATOM     13  N   UNL     1     -18.056   9.130  15.765  1.00  0.00    -0.330 NA
ATOM     14  H   UNL     1     -18.552   8.341  16.179  1.00  0.00     0.118 HD
ATOM     15  H   UNL     1     -18.765   9.688  15.294  1.00  0.00     0.118 HD
ENDBRANCH  12  13
ENDBRANCH   1  12
TORSDOF 5
ENDMDL
MODEL 2
REMARK VINA RESULT:    -4.484     13.369     14.646
REMARK INTER + INTRA:          -5.470
REMARK INTER:                  -5.407
REMARK INTRA:                  -0.063
REMARK UNBOUND:                -0.068
REMARK SMILES NCCc1ccc(O)c(O)c1
REMARK SMILES IDX 3 1 4 2 9 3 11 4 7 5 6 6 5 7 10 8 8 10 2 12 1 13
REMARK H PARENT 10 9 8 11 1 14 1 15
ROOT
ATOM      1  C   UNL     1     -13.834  -1.547  17.504  1.00  0.00     0.050 C 
ENDROOT
BRANCH   1   2
ATOM      2  C   UNL     1     -14.474  -1.197  18.804  1.00  0.00    -0.043 A 
ATOM      3  C   UNL     1     -15.109  -1.805  21.054  1.00  0.00     0.157 A 
ATOM      4  C   UNL     1     -14.510  -2.132  19.839  1.00  0.00     0.054 A 
ATOM      5  C   UNL     1     -15.675  -0.542  21.236  1.00  0.00     0.157 A 
ATOM      6  C   UNL     1     -15.640   0.393  20.202  1.00  0.00     0.050 A 
ATOM      7  C   UNL     1     -15.039   0.066  18.986  1.00  0.00     0.008 A 
BRANCH   3   8
ATOM      8  O   UNL     1     -15.137  -2.727  22.057  1.00  0.00    -0.504 OA
ATOM      9  H   UNL     1     -15.420  -2.281  22.875  1.00  0.00     0.293 HD
ENDBRANCH   3   8
BRANCH   5  10
ATOM     10  O   UNL     1     -16.263  -0.211  22.419  1.00  0.00    -0.504 OA
ATOM     11  H   UNL     1     -16.917   0.491  22.261  1.00  0.00     0.293 HD
ENDBRANCH   5  10
ENDBRANCH   1   2
BRANCH   1  12
ATOM     12  C   UNL     1     -14.097  -3.006  17.104  1.00  0.00     0.082 C 
BRANCH  12  13
ATOM     13  N   UNL     1     -13.567  -3.301  15.777  1.00  0.00    -0.330 NA
ATOM     14  H   UNL     1     -14.314  -3.664  15.185  1.00  0.00     0.118 HD
ATOM     15  H   UNL     1     -12.877  -4.048  15.844  1.00  0.00     0.118 HD
ENDBRANCH  12  13
ENDBRANCH   1  12
TORSDOF 5
ENDMDL
MODEL 3
REMARK VINA RESULT:    -4.463      0.967      2.064
REMARK INTER + INTRA:          -5.444
REMARK INTER:                  -5.357
REMARK INTRA:                  -0.088
REMARK UNBOUND:                -0.068
REMARK SMILES NCCc1ccc(O)c(O)c1
REMARK SMILES IDX 3 1 4 2 9 3 11 4 7 5 6 6 5 7 10 8 8 10 2 12 1 13
REMARK H PARENT 10 9 8 11 1 14 1 15
ROOT
ATOM      1  C   UNL     1     -15.686  10.240  14.628  1.00  0.00     0.050 C 
ENDROOT
BRANCH   1   2
ATOM      2  C   UNL     1     -15.732  10.398  13.146  1.00  0.00    -0.043 A 
ATOM      3  C   UNL     1     -16.005   9.437  10.946  1.00  0.00     0.157 A 
ATOM      4  C   UNL     1     -15.963   9.289  12.332  1.00  0.00     0.054 A 
ATOM      5  C   UNL     1     -15.815  10.695  10.373  1.00  0.00     0.157 A 
ATOM      6  C   UNL     1     -15.583  11.804  11.186  1.00  0.00     0.050 A 
ATOM      7  C   UNL     1     -15.542  11.656  12.572  1.00  0.00     0.008 A 
BRANCH   3   8
ATOM      8  O   UNL     1     -16.233   8.347  10.162  1.00  0.00    -0.504 OA
ATOM      9  H   UNL     1     -15.635   7.634  10.448  1.00  0.00     0.293 HD
ENDBRANCH   3   8
BRANCH   5  10
ATOM     10  O   UNL     1     -15.854  10.853   9.020  1.00  0.00    -0.504 OA
ATOM     11  H   UNL     1     -16.782  10.869   8.730  1.00  0.00     0.293 HD
ENDBRANCH   5  10
ENDBRANCH   1   2
BRANCH   1  12
ATOM     12  C   UNL     1     -16.427   8.981  15.098  1.00  0.00     0.082 C 
BRANCH  12  13
ATOM     13  N   UNL     1     -17.816   9.273  15.439  1.00  0.00    -0.330 NA
ATOM     14  H   UNL     1     -18.147  10.055  14.875  1.00  0.00     0.118 HD
ATOM     15  H   UNL     1     -17.870   9.585  16.407  1.00  0.00     0.118 HD
ENDBRANCH  12  13
ENDBRANCH   1  12
TORSDOF 5
ENDMDL
MODEL 4
REMARK VINA RESULT:    -4.392      5.846      7.338
REMARK INTER + INTRA:          -5.359
REMARK INTER:                  -5.302
REMARK INTRA:                  -0.057
REMARK UNBOUND:                -0.068
REMARK SMILES NCCc1ccc(O)c(O)c1
REMARK SMILES IDX 3 1 4 2 9 3 11 4 7 5 6 6 5 7 10 8 8 10 2 12 1 13
REMARK H PARENT 10 9 8 11 1 14 1 15
ROOT
ATOM      1  C   UNL     1     -18.429   6.283  16.289  1.00  0.00     0.050 C 
ENDROOT
BRANCH   1   2
ATOM      2  C   UNL     1     -17.933   5.026  15.659  1.00  0.00    -0.043 A 
ATOM      3  C   UNL     1     -16.108   3.692  14.805  1.00  0.00     0.157 A 
ATOM      4  C   UNL     1     -16.572   4.867  15.395  1.00  0.00     0.054 A 
ATOM      5  C   UNL     1     -17.005   2.674  14.478  1.00  0.00     0.157 A 
ATOM      6  C   UNL     1     -18.366   2.832  14.742  1.00  0.00     0.050 A 
ATOM      7  C   UNL     1     -18.830   4.007  15.333  1.00  0.00     0.008 A 
BRANCH   3   8
ATOM      8  O   UNL     1     -14.777   3.549  14.553  1.00  0.00    -0.504 OA
ATOM      9  H   UNL     1     -14.569   2.598  14.536  1.00  0.00     0.293 HD
ENDBRANCH   3   8
BRANCH   5  10
ATOM     10  O   UNL     1     -16.564   1.521  13.902  1.00  0.00    -0.504 OA
ATOM     11  H   UNL     1     -17.237   0.830  14.023  1.00  0.00     0.293 HD
ENDBRANCH   5  10
ENDBRANCH   1   2
BRANCH   1  12
ATOM     12  C   UNL     1     -18.008   7.530  15.499  1.00  0.00     0.082 C 
BRANCH  12  13
ATOM     13  N   UNL     1     -18.451   8.755  16.156  1.00  0.00    -0.330 NA
ATOM     14  H   UNL     1     -18.441   9.524  15.486  1.00  0.00     0.118 HD
ATOM     15  H   UNL     1     -17.786   9.011  16.883  1.00  0.00     0.118 HD
ENDBRANCH  12  13
ENDBRANCH   1  12
TORSDOF 5
ENDMDL
MODEL 5
REMARK VINA RESULT:    -4.171      8.881     10.164
REMARK INTER + INTRA:          -5.093
REMARK INTER:                  -5.009
REMARK INTRA:                  -0.084
REMARK UNBOUND:                -0.068
REMARK SMILES NCCc1ccc(O)c(O)c1
REMARK SMILES IDX 3 1 4 2 9 3 11 4 7 5 6 6 5 7 10 8 8 10 2 12 1 13
REMARK H PARENT 10 9 8 11 1 14 1 15
ROOT
ATOM      1  C   UNL     1     -10.927   4.303   6.328  1.00  0.00     0.050 C 
ENDROOT
BRANCH   1   2
ATOM      2  C   UNL     1     -10.985   3.703   7.693  1.00  0.00    -0.043 A 
ATOM      3  C   UNL     1     -11.840   3.722   9.952  1.00  0.00     0.157 A 
ATOM      4  C   UNL     1     -11.787   4.282   8.676  1.00  0.00     0.054 A 
ATOM      5  C   UNL     1     -11.089   2.582  10.246  1.00  0.00     0.157 A 
ATOM      6  C   UNL     1     -10.287   2.003   9.262  1.00  0.00     0.050 A 
ATOM      7  C   UNL     1     -10.235   2.563   7.986  1.00  0.00     0.008 A 
BRANCH   3   8
ATOM      8  O   UNL     1     -12.628   4.295  10.904  1.00  0.00    -0.504 OA
ATOM      9  H   UNL     1     -12.172   4.226  11.761  1.00  0.00     0.293 HD
ENDBRANCH   3   8
BRANCH   5  10
ATOM     10  O   UNL     1     -11.133   2.025  11.488  1.00  0.00    -0.504 OA
ATOM     11  H   UNL     1     -10.624   2.582  12.102  1.00  0.00     0.293 HD
ENDBRANCH   5  10
ENDBRANCH   1   2
BRANCH   1  12
ATOM     12  C   UNL     1      -9.653   5.131   6.115  1.00  0.00     0.082 C 
BRANCH  12  13
ATOM     13  N   UNL     1      -9.811   6.494   6.613  1.00  0.00    -0.330 NA
ATOM     14  H   UNL     1     -10.648   6.550   7.192  1.00  0.00     0.118 HD
ATOM     15  H   UNL     1      -9.971   7.126   5.830  1.00  0.00     0.118 HD
ENDBRANCH  12  13
ENDBRANCH   1  12
TORSDOF 5
ENDMDL
MODEL 6
REMARK VINA RESULT:    -4.154      9.012     10.015
REMARK INTER + INTRA:          -5.072
REMARK INTER:                  -4.999
REMARK INTRA:                  -0.073
REMARK UNBOUND:                -0.068
REMARK SMILES NCCc1ccc(O)c(O)c1
REMARK SMILES IDX 3 1 4 2 9 3 11 4 7 5 6 6 5 7 10 8 8 10 2 12 1 13
REMARK H PARENT 10 9 8 11 1 14 1 15
ROOT
ATOM      1  C   UNL     1     -10.791   2.354   8.728  1.00  0.00     0.050 C 
ENDROOT
BRANCH   1   2
ATOM      2  C   UNL     1     -10.236   3.274   7.694  1.00  0.00    -0.043 A 
ATOM      3  C   UNL     1      -9.948   5.506   6.815  1.00  0.00     0.157 A 
ATOM      4  C   UNL     1     -10.467   4.646   7.783  1.00  0.00     0.054 A 
ATOM      5  C   UNL     1      -9.199   4.992   5.756  1.00  0.00     0.157 A 
ATOM      6  C   UNL     1      -8.968   3.620   5.666  1.00  0.00     0.050 A 
ATOM      7  C   UNL     1      -9.485   2.760   6.635  1.00  0.00     0.008 A 
BRANCH   3   8
ATOM      8  O   UNL     1     -10.180   6.845   6.914  1.00  0.00    -0.504 OA
ATOM      9  H   UNL     1      -9.918   7.136   7.805  1.00  0.00     0.293 HD
ENDBRANCH   3   8
BRANCH   5  10
ATOM     10  O   UNL     1      -8.687   5.822   4.804  1.00  0.00    -0.504 OA
ATOM     11  H   UNL     1      -9.195   6.651   4.801  1.00  0.00     0.293 HD
ENDBRANCH   5  10
ENDBRANCH   1   2
BRANCH   1  12
ATOM     12  C   UNL     1     -11.329   3.115   9.948  1.00  0.00     0.082 C 
BRANCH  12  13
ATOM     13  N   UNL     1     -11.310   2.285  11.148  1.00  0.00    -0.330 NA
ATOM     14  H   UNL     1     -11.834   2.748  11.891  1.00  0.00     0.118 HD
ATOM     15  H   UNL     1     -10.354   2.204  11.491  1.00  0.00     0.118 HD
ENDBRANCH  12  13
ENDBRANCH   1  12
TORSDOF 5
ENDMDL
MODEL 7
REMARK VINA RESULT:    -4.148      3.293      4.285
REMARK INTER + INTRA:          -5.065
REMARK INTER:                  -4.958
REMARK INTRA:                  -0.107
REMARK UNBOUND:                -0.068
REMARK SMILES NCCc1ccc(O)c(O)c1
REMARK SMILES IDX 3 1 4 2 9 3 11 4 7 5 6 6 5 7 10 8 8 10 2 12 1 13
REMARK H PARENT 10 9 8 11 1 14 1 15
ROOT
ATOM      1  C   UNL     1     -15.965  10.935   9.796  1.00  0.00     0.050 C 
ENDROOT
BRANCH   1   2
ATOM      2  C   UNL     1     -15.045  11.542  10.801  1.00  0.00    -0.043 A 
ATOM      3  C   UNL     1     -12.855  12.364  11.406  1.00  0.00     0.157 A 
ATOM      4  C   UNL     1     -13.715  11.797  10.466  1.00  0.00     0.054 A 
ATOM      5  C   UNL     1     -13.325  12.676  12.683  1.00  0.00     0.157 A 
ATOM      6  C   UNL     1     -14.655  12.421  13.018  1.00  0.00     0.050 A 
ATOM      7  C   UNL     1     -15.515  11.855  12.077  1.00  0.00     0.008 A 
BRANCH   3   8
ATOM      8  O   UNL     1     -11.559  12.608  11.066  1.00  0.00    -0.504 OA
ATOM      9  H   UNL     1     -11.500  13.514  10.715  1.00  0.00     0.293 HD
ENDBRANCH   3   8
BRANCH   5  10
ATOM     10  O   UNL     1     -12.495  13.230  13.609  1.00  0.00    -0.504 OA
ATOM     11  H   UNL     1     -13.017  13.797  14.203  1.00  0.00     0.293 HD
ENDBRANCH   5  10
ENDBRANCH   1   2
BRANCH   1  12
ATOM     12  C   UNL     1     -16.831   9.822  10.403  1.00  0.00     0.082 C 
BRANCH  12  13
ATOM     13  N   UNL     1     -16.129   8.543  10.413  1.00  0.00    -0.330 NA
ATOM     14  H   UNL     1     -15.383   8.569  11.108  1.00  0.00     0.118 HD
ATOM     15  H   UNL     1     -15.668   8.400   9.516  1.00  0.00     0.118 HD
ENDBRANCH  12  13
ENDBRANCH   1  12
TORSDOF 5
ENDMDL
MODEL 8
REMARK VINA RESULT:    -4.145      6.384      7.442
REMARK INTER + INTRA:          -5.062
REMARK INTER:                  -4.978
REMARK INTRA:                  -0.083
REMARK UNBOUND:                -0.068
REMARK SMILES NCCc1ccc(O)c(O)c1
REMARK SMILES IDX 3 1 4 2 9 3 11 4 7 5 6 6 5 7 10 8 8 10 2 12 1 13
REMARK H PARENT 10 9 8 11 1 14 1 15
ROOT
ATOM      1  C   UNL     1     -18.047   8.772  16.437  1.00  0.00     0.050 C 
ENDROOT
BRANCH   1   2
ATOM      2  C   UNL     1     -18.253   7.296  16.492  1.00  0.00    -0.043 A 
ATOM      3  C   UNL     1     -18.484   5.262  17.774  1.00  0.00     0.157 A 
ATOM      4  C   UNL     1     -18.293   6.642  17.723  1.00  0.00     0.054 A 
ATOM      5  C   UNL     1     -18.635   4.534  16.593  1.00  0.00     0.157 A 
ATOM      6  C   UNL     1     -18.596   5.188  15.362  1.00  0.00     0.050 A 
ATOM      7  C   UNL     1     -18.405   6.569  15.311  1.00  0.00     0.008 A 
BRANCH   3   8
ATOM      8  O   UNL     1     -18.522   4.635  18.983  1.00  0.00    -0.504 OA
ATOM      9  H   UNL     1     -19.083   3.845  18.901  1.00  0.00     0.293 HD
ENDBRANCH   3   8
BRANCH   5  10
ATOM     10  O   UNL     1     -18.823   3.186  16.630  1.00  0.00    -0.504 OA
ATOM     11  H   UNL     1     -19.776   3.001  16.685  1.00  0.00     0.293 HD
ENDBRANCH   5  10
ENDBRANCH   1   2
BRANCH   1  12
ATOM     12  C   UNL     1     -16.571   9.157  16.614  1.00  0.00     0.082 C 
BRANCH  12  13
ATOM     13  N   UNL     1     -15.946   9.480  15.336  1.00  0.00    -0.330 NA
ATOM     14  H   UNL     1     -15.106   8.914  15.215  1.00  0.00     0.118 HD
ATOM     15  H   UNL     1     -15.630  10.449  15.346  1.00  0.00     0.118 HD
ENDBRANCH  12  13
ENDBRANCH   1  12
TORSDOF 5
ENDMDL
MODEL 9
REMARK VINA RESULT:    -4.118      2.709      3.536
REMARK INTER + INTRA:          -5.028
REMARK INTER:                  -4.967
REMARK INTRA:                  -0.062
REMARK UNBOUND:                -0.068
REMARK SMILES NCCc1ccc(O)c(O)c1
REMARK SMILES IDX 3 1 4 2 9 3 11 4 7 5 6 6 5 7 10 8 8 10 2 12 1 13
REMARK H PARENT 10 9 8 11 1 14 1 15
ROOT
ATOM      1  C   UNL     1     -14.724  13.328  12.994  1.00  0.00     0.050 C 
ENDROOT
BRANCH   1   2
ATOM      2  C   UNL     1     -15.125  12.090  12.265  1.00  0.00    -0.043 A 
ATOM      3  C   UNL     1     -15.668  10.961  10.200  1.00  0.00     0.157 A 
ATOM      4  C   UNL     1     -15.292  12.118  10.881  1.00  0.00     0.054 A 
ATOM      5  C   UNL     1     -15.877   9.774  10.904  1.00  0.00     0.157 A 
ATOM      6  C   UNL     1     -15.709   9.746  12.288  1.00  0.00     0.050 A 
ATOM      7  C   UNL     1     -15.333  10.903  12.969  1.00  0.00     0.008 A 
BRANCH   3   8
ATOM      8  O   UNL     1     -15.828  11.001   8.848  1.00  0.00    -0.504 OA
ATOM      9  H   UNL     1     -15.696  10.102   8.497  1.00  0.00     0.293 HD
ENDBRANCH   3   8
BRANCH   5  10
ATOM     10  O   UNL     1     -16.243   8.637  10.250  1.00  0.00    -0.504 OA
ATOM     11  H   UNL     1     -17.209   8.537  10.306  1.00  0.00     0.293 HD
ENDBRANCH   5  10
ENDBRANCH   1   2
BRANCH   1  12
ATOM     12  C   UNL     1     -13.670  13.048  14.074  1.00  0.00     0.082 C 
BRANCH  12  13
ATOM     13  N   UNL     1     -12.941  14.258  14.439  1.00  0.00    -0.330 NA
ATOM     14  H   UNL     1     -12.163  14.394  13.794  1.00  0.00     0.118 HD
ATOM     15  H   UNL     1     -12.522  14.139  15.359  1.00  0.00     0.118 HD
ENDBRANCH  12  13
ENDBRANCH   1  12
TORSDOF 5
ENDMDL
