MODEL 1
REMARK VINA RESULT:    -6.091      0.000      0.000
REMARK INTER + INTRA:          -7.394
REMARK INTER:                  -7.338
REMARK INTRA:                  -0.057
REMARK UNBOUND:                -0.057
REMARK SMILES NCCc1ccc(O)c(O)c1
REMARK SMILES IDX 3 1 4 2 9 3 11 4 7 5 6 6 5 7 10 8 8 10 2 12 1 13
REMARK H PARENT 10 9 8 11 1 14 1 15
ROOT
ATOM      1  C   UNL     1       5.577  -8.922   8.152  1.00  0.00     0.050 C 
ENDROOT
BRANCH   1   2
ATOM      2  C   UNL     1       6.438  -7.781   7.725  1.00  0.00    -0.043 A 
ATOM      3  C   UNL     1       8.124  -6.868   6.256  1.00  0.00     0.157 A 
ATOM      4  C   UNL     1       7.318  -7.934   6.654  1.00  0.00     0.054 A 
ATOM      5  C   UNL     1       8.050  -5.648   6.929  1.00  0.00     0.157 A 
ATOM      6  C   UNL     1       7.170  -5.495   8.000  1.00  0.00     0.050 A 
ATOM      7  C   UNL     1       6.364  -6.561   8.398  1.00  0.00     0.008 A 
BRANCH   3   8
ATOM      8  O   UNL     1       8.979  -7.030   5.208  1.00  0.00    -0.504 OA
ATOM      9  H   UNL     1       8.582  -6.616   4.422  1.00  0.00     0.293 HD
ENDBRANCH   3   8
BRANCH   5  10
ATOM     10  O   UNL     1       8.832  -4.599   6.549  1.00  0.00    -0.504 OA
ATOM     11  H   UNL     1       8.569  -4.316   5.657  1.00  0.00     0.293 HD
ENDBRANCH   5  10
ENDBRANCH   1   2
BRANCH   1  12
ATOM     12  C   UNL     1       4.083  -8.571   8.094  1.00  0.00     0.082 C 
BRANCH  12  13
ATOM     13  N   UNL     1       3.277  -9.724   7.705  1.00  0.00    -0.330 NA
ATOM     14  H   UNL     1       2.848 -10.134   8.534  1.00  0.00     0.118 HD
ATOM     15  H   UNL     1       3.881 -10.446   7.318  1.00  0.00     0.118 HD
ENDBRANCH  12  13
ENDBRANCH   1  12
TORSDOF 5
ENDMDL
MODEL 2
REMARK VINA RESULT:    -6.087      3.970      5.327
REMARK INTER + INTRA:          -7.390
REMARK INTER:                  -7.322
REMARK INTRA:                  -0.068
REMARK UNBOUND:                -0.057
REMARK SMILES NCCc1ccc(O)c(O)c1
REMARK SMILES IDX 3 1 4 2 9 3 11 4 7 5 6 6 5 7 10 8 8 10 2 12 1 13
REMARK H PARENT 10 9 8 11 1 14 1 15
ROOT
ATOM      1  C   UNL     1       6.730  -6.680   7.632  1.00  0.00     0.050 C 
ENDROOT
BRANCH   1   2
ATOM      2  C   UNL     1       5.576  -7.591   7.881  1.00  0.00    -0.043 A 
ATOM      3  C   UNL     1       3.219  -7.915   8.302  1.00  0.00     0.157 A 
ATOM      4  C   UNL     1       4.298  -7.063   8.068  1.00  0.00     0.054 A 
ATOM      5  C   UNL     1       3.417  -9.295   8.350  1.00  0.00     0.157 A 
ATOM      6  C   UNL     1       4.695  -9.823   8.163  1.00  0.00     0.050 A 
ATOM      7  C   UNL     1       5.774  -8.971   7.928  1.00  0.00     0.008 A 
BRANCH   3   8
ATOM      8  O   UNL     1       1.976  -7.387   8.482  1.00  0.00    -0.504 OA
ATOM      9  H   UNL     1       1.728  -7.500   9.417  1.00  0.00     0.293 HD
ENDBRANCH   3   8
BRANCH   5  10
ATOM     10  O   UNL     1       2.371 -10.137   8.577  1.00  0.00    -0.504 OA
ATOM     11  H   UNL     1       2.298 -10.760   7.833  1.00  0.00     0.293 HD
ENDBRANCH   5  10
ENDBRANCH   1   2
BRANCH   1  12
ATOM     12  C   UNL     1       7.795  -7.328   6.736  1.00  0.00     0.082 C 
BRANCH  12  13
ATOM     13  N   UNL     1       8.488  -6.335   5.923  1.00  0.00    -0.330 NA
ATOM     14  H   UNL     1       8.945  -5.656   6.531  1.00  0.00     0.118 HD
ATOM     15  H   UNL     1       7.809  -5.806   5.378  1.00  0.00     0.118 HD
ENDBRANCH  12  13
ENDBRANCH   1  12
TORSDOF 5
ENDMDL
MODEL 3
REMARK VINA RESULT:    -5.807      1.089      2.233
REMARK INTER + INTRA:          -7.052
REMARK INTER:                  -6.972
REMARK INTRA:                  -0.079
REMARK UNBOUND:                -0.057
REMARK SMILES NCCc1ccc(O)c(O)c1
REMARK SMILES IDX 3 1 4 2 9 3 11 4 7 5 6 6 5 7 10 8 8 10 2 12 1 13
REMARK H PARENT 10 9 8 11 1 14 1 15
ROOT
ATOM      1  C   UNL     1       4.709  -7.610   8.230  1.00  0.00     0.050 C 
ENDROOT
BRANCH   1   2
ATOM      2  C   UNL     1       5.971  -6.884   7.905  1.00  0.00    -0.043 A 
ATOM      3  C   UNL     1       7.369  -4.924   8.107  1.00  0.00     0.157 A 
ATOM      4  C   UNL     1       6.190  -5.603   8.412  1.00  0.00     0.054 A 
ATOM      5  C   UNL     1       8.330  -5.525   7.293  1.00  0.00     0.157 A 
ATOM      6  C   UNL     1       8.111  -6.806   6.785  1.00  0.00     0.050 A 
ATOM      7  C   UNL     1       6.932  -7.485   7.091  1.00  0.00     0.008 A 
BRANCH   3   8
ATOM      8  O   UNL     1       7.571  -3.674   8.610  1.00  0.00    -0.504 OA
ATOM      9  H   UNL     1       7.582  -3.044   7.868  1.00  0.00     0.293 HD
ENDBRANCH   3   8
BRANCH   5  10
ATOM     10  O   UNL     1       9.485  -4.872   6.988  1.00  0.00    -0.504 OA
ATOM     11  H   UNL     1      10.186  -5.527   6.828  1.00  0.00     0.293 HD
ENDBRANCH   5  10
ENDBRANCH   1   2
BRANCH   1  12
ATOM     12  C   UNL     1       4.872  -9.132   8.114  1.00  0.00     0.082 C 
BRANCH  12  13
ATOM     13  N   UNL     1       3.622  -9.776   7.725  1.00  0.00    -0.330 NA
ATOM     14  H   UNL     1       3.805 -10.456   6.987  1.00  0.00     0.118 HD
ATOM     15  H   UNL     1       2.995  -9.085   7.317  1.00  0.00     0.118 HD
ENDBRANCH  12  13
ENDBRANCH   1  12
TORSDOF 5
ENDMDL
MODEL 4
REMARK VINA RESULT:    -5.720      4.037      5.053
REMARK INTER + INTRA:          -6.947
REMARK INTER:                  -6.857
REMARK INTRA:                  -0.090
REMARK UNBOUND:                -0.057
REMARK SMILES NCCc1ccc(O)c(O)c1
REMARK SMILES IDX 3 1 4 2 9 3 11 4 7 5 6 6 5 7 10 8 8 10 2 12 1 13
REMARK H PARENT 10 9 8 11 1 14 1 15
ROOT
ATOM      1  C   UNL     1       7.044  -8.306   7.286  1.00  0.00     0.050 C 
ENDROOT
BRANCH   1   2
ATOM      2  C   UNL     1       5.625  -8.178   7.730  1.00  0.00    -0.043 A 
ATOM      3  C   UNL     1       3.648  -9.147   8.722  1.00  0.00     0.157 A 
ATOM      4  C   UNL     1       4.974  -9.267   8.308  1.00  0.00     0.054 A 
ATOM      5  C   UNL     1       2.972  -7.938   8.557  1.00  0.00     0.157 A 
ATOM      6  C   UNL     1       3.623  -6.848   7.978  1.00  0.00     0.050 A 
ATOM      7  C   UNL     1       4.950  -6.968   7.565  1.00  0.00     0.008 A 
BRANCH   3   8
ATOM      8  O   UNL     1       3.022 -10.218   9.287  1.00  0.00    -0.504 OA
ATOM      9  H   UNL     1       2.068 -10.032   9.321  1.00  0.00     0.293 HD
ENDBRANCH   3   8
BRANCH   5  10
ATOM     10  O   UNL     1       1.676  -7.808   8.958  1.00  0.00    -0.504 OA
ATOM     11  H   UNL     1       1.499  -6.873   9.158  1.00  0.00     0.293 HD
ENDBRANCH   5  10
ENDBRANCH   1   2
BRANCH   1  12
ATOM     12  C   UNL     1       7.701  -6.939   7.051  1.00  0.00     0.082 C 
BRANCH  12  13
ATOM     13  N   UNL     1       8.411  -6.899   5.776  1.00  0.00    -0.330 NA
ATOM     14  H   UNL     1       8.385  -5.950   5.403  1.00  0.00     0.118 HD
ATOM     15  H   UNL     1       7.923  -7.479   5.096  1.00  0.00     0.118 HD
ENDBRANCH  12  13
ENDBRANCH   1  12
TORSDOF 5
ENDMDL
MODEL 5
REMARK VINA RESULT:    -5.657      2.804      3.723
REMARK INTER + INTRA:          -6.871
REMARK INTER:                  -6.812
REMARK INTRA:                  -0.059
REMARK UNBOUND:                -0.057
REMARK SMILES NCCc1ccc(O)c(O)c1
REMARK SMILES IDX 3 1 4 2 9 3 11 4 7 5 6 6 5 7 10 8 8 10 2 12 1 13
REMARK H PARENT 10 9 8 11 1 14 1 15
ROOT
ATOM      1  C   UNL     1       6.126  -4.054   9.522  1.00  0.00     0.050 C 
ENDROOT
BRANCH   1   2
ATOM      2  C   UNL     1       6.802  -4.854   8.460  1.00  0.00    -0.043 A 
ATOM      3  C   UNL     1       6.940  -6.860   7.121  1.00  0.00     0.157 A 
ATOM      4  C   UNL     1       6.308  -6.112   8.114  1.00  0.00     0.054 A 
ATOM      5  C   UNL     1       8.067  -6.351   6.474  1.00  0.00     0.157 A 
ATOM      6  C   UNL     1       8.560  -5.093   6.820  1.00  0.00     0.050 A 
ATOM      7  C   UNL     1       7.928  -4.344   7.812  1.00  0.00     0.008 A 
BRANCH   3   8
ATOM      8  O   UNL     1       6.448  -8.087   6.791  1.00  0.00    -0.504 OA
ATOM      9  H   UNL     1       6.377  -8.617   7.605  1.00  0.00     0.293 HD
ENDBRANCH   3   8
BRANCH   5  10
ATOM     10  O   UNL     1       8.693  -7.072   5.503  1.00  0.00    -0.504 OA
ATOM     11  H   UNL     1       9.366  -7.640   5.915  1.00  0.00     0.293 HD
ENDBRANCH   5  10
ENDBRANCH   1   2
BRANCH   1  12
ATOM     12  C   UNL     1       5.803  -4.897  10.763  1.00  0.00     0.082 C 
BRANCH  12  13
ATOM     13  N   UNL     1       5.712  -4.072  11.963  1.00  0.00    -0.330 NA
ATOM     14  H   UNL     1       4.818  -3.582  11.972  1.00  0.00     0.118 HD
ATOM     15  H   UNL     1       6.427  -3.347  11.932  1.00  0.00     0.118 HD
ENDBRANCH  12  13
ENDBRANCH   1  12
TORSDOF 5
ENDMDL
MODEL 6
REMARK VINA RESULT:    -5.543      2.492      3.535
REMARK INTER + INTRA:          -6.734
REMARK INTER:                  -6.659
REMARK INTRA:                  -0.075
REMARK UNBOUND:                -0.057
REMARK SMILES NCCc1ccc(O)c(O)c1
REMARK SMILES IDX 3 1 4 2 9 3 11 4 7 5 6 6 5 7 10 8 8 10 2 12 1 13
REMARK H PARENT 10 9 8 11 1 14 1 15
ROOT
ATOM      1  C   UNL     1       5.802  -5.536   9.716  1.00  0.00     0.050 C 
ENDROOT
BRANCH   1   2
ATOM      2  C   UNL     1       6.633  -5.914   8.537  1.00  0.00    -0.043 A 
ATOM      3  C   UNL     1       8.364  -5.380   6.938  1.00  0.00     0.157 A 
ATOM      4  C   UNL     1       7.587  -5.026   8.041  1.00  0.00     0.054 A 
ATOM      5  C   UNL     1       8.186  -6.623   6.329  1.00  0.00     0.157 A 
ATOM      6  C   UNL     1       7.232  -7.511   6.825  1.00  0.00     0.050 A 
ATOM      7  C   UNL     1       6.456  -7.158   7.929  1.00  0.00     0.008 A 
BRANCH   3   8
ATOM      8  O   UNL     1       9.293  -4.503   6.464  1.00  0.00    -0.504 OA
ATOM      9  H   UNL     1       9.349  -3.753   7.081  1.00  0.00     0.293 HD
ENDBRANCH   3   8
BRANCH   5  10
ATOM     10  O   UNL     1       8.938  -6.980   5.252  1.00  0.00    -0.504 OA
ATOM     11  H   UNL     1       9.731  -6.418   5.220  1.00  0.00     0.293 HD
ENDBRANCH   5  10
ENDBRANCH   1   2
BRANCH   1  12
ATOM     12  C   UNL     1       6.185  -4.157  10.274  1.00  0.00     0.082 C 
BRANCH  12  13
ATOM     13  N   UNL     1       5.811  -4.025  11.678  1.00  0.00    -0.330 NA
ATOM     14  H   UNL     1       6.080  -3.102  12.016  1.00  0.00     0.118 HD
ATOM     15  H   UNL     1       6.342  -4.692  12.236  1.00  0.00     0.118 HD
ENDBRANCH  12  13
ENDBRANCH   1  12
TORSDOF 5
ENDMDL
MODEL 7
REMARK VINA RESULT:    -5.519      3.564      4.677
REMARK INTER + INTRA:          -6.705
REMARK INTER:                  -6.638
REMARK INTRA:                  -0.067
REMARK UNBOUND:                -0.057
REMARK SMILES NCCc1ccc(O)c(O)c1
REMARK SMILES IDX 3 1 4 2 9 3 11 4 7 5 6 6 5 7 10 8 8 10 2 12 1 13
REMARK H PARENT 10 9 8 11 1 14 1 15
ROOT
ATOM      1  C   UNL     1       6.174  -4.159   9.282  1.00  0.00     0.050 C 
ENDROOT
BRANCH   1   2
ATOM      2  C   UNL     1       6.274  -5.477   8.592  1.00  0.00    -0.043 A 
ATOM      3  C   UNL     1       5.237  -7.514   7.809  1.00  0.00     0.157 A 
ATOM      4  C   UNL     1       5.143  -6.281   8.453  1.00  0.00     0.054 A 
ATOM      5  C   UNL     1       6.464  -7.944   7.303  1.00  0.00     0.157 A 
ATOM      6  C   UNL     1       7.596  -7.141   7.441  1.00  0.00     0.050 A 
ATOM      7  C   UNL     1       7.501  -5.907   8.085  1.00  0.00     0.008 A 
BRANCH   3   8
ATOM      8  O   UNL     1       4.125  -8.289   7.679  1.00  0.00    -0.504 OA
ATOM      9  H   UNL     1       3.414  -7.744   7.299  1.00  0.00     0.293 HD
ENDBRANCH   3   8
BRANCH   5  10
ATOM     10  O   UNL     1       6.569  -9.147   6.671  1.00  0.00    -0.504 OA
ATOM     11  H   UNL     1       5.750  -9.650   6.812  1.00  0.00     0.293 HD
ENDBRANCH   5  10
ENDBRANCH   1   2
BRANCH   1  12
ATOM     12  C   UNL     1       7.008  -3.076   8.584  1.00  0.00     0.082 C 
BRANCH  12  13
ATOM     13  N   UNL     1       7.165  -1.895   9.425  1.00  0.00    -0.330 NA
ATOM     14  H   UNL     1       8.045  -1.955   9.936  1.00  0.00     0.118 HD
ATOM     15  H   UNL     1       6.433  -1.882  10.134  1.00  0.00     0.118 HD
ENDBRANCH  12  13
ENDBRANCH   1  12
TORSDOF 5
ENDMDL
MODEL 8
REMARK VINA RESULT:    -5.334      2.132      3.435
REMARK INTER + INTRA:          -6.482
REMARK INTER:                  -6.415
REMARK INTRA:                  -0.067
REMARK UNBOUND:                -0.057
REMARK SMILES NCCc1ccc(O)c(O)c1
REMARK SMILES IDX 3 1 4 2 9 3 11 4 7 5 6 6 5 7 10 8 8 10 2 12 1 13
REMARK H PARENT 10 9 8 11 1 14 1 15
ROOT
ATOM      1  C   UNL     1       2.793  -9.610   9.265  1.00  0.00     0.050 C 
ENDROOT
BRANCH   1   2
ATOM      2  C   UNL     1       4.000  -8.918   8.729  1.00  0.00    -0.043 A 
ATOM      3  C   UNL     1       5.222  -6.880   8.290  1.00  0.00     0.157 A 
ATOM      4  C   UNL     1       4.093  -7.527   8.792  1.00  0.00     0.054 A 
ATOM      5  C   UNL     1       6.259  -7.623   7.724  1.00  0.00     0.157 A 
ATOM      6  C   UNL     1       6.166  -9.013   7.661  1.00  0.00     0.050 A 
ATOM      7  C   UNL     1       5.037  -9.661   8.163  1.00  0.00     0.008 A 
BRANCH   3   8
ATOM      8  O   UNL     1       5.301  -5.522   8.358  1.00  0.00    -0.504 OA
ATOM      9  H   UNL     1       6.217  -5.258   8.160  1.00  0.00     0.293 HD
ENDBRANCH   3   8
BRANCH   5  10
ATOM     10  O   UNL     1       7.366  -7.002   7.231  1.00  0.00    -0.504 OA
ATOM     11  H   UNL     1       7.524  -6.188   7.737  1.00  0.00     0.293 HD
ENDBRANCH   5  10
ENDBRANCH   1   2
BRANCH   1  12
ATOM     12  C   UNL     1       1.532  -8.743   9.151  1.00  0.00     0.082 C 
BRANCH  12  13
ATOM     13  N   UNL     1       0.352  -9.550   8.858  1.00  0.00    -0.330 NA
ATOM     14  H   UNL     1      -0.208  -9.653   9.704  1.00  0.00     0.118 HD
ATOM     15  H   UNL     1       0.639 -10.492   8.598  1.00  0.00     0.118 HD
ENDBRANCH  12  13
ENDBRANCH   1  12
TORSDOF 5
ENDMDL
MODEL 9
REMARK VINA RESULT:    -5.322      1.520      2.503
REMARK INTER + INTRA:          -6.467
REMARK INTER:                  -6.390
REMARK INTRA:                  -0.078
REMARK UNBOUND:                -0.057
REMARK SMILES NCCc1ccc(O)c(O)c1
REMARK SMILES IDX 3 1 4 2 9 3 11 4 7 5 6 6 5 7 10 8 8 10 2 12 1 13
REMARK H PARENT 10 9 8 11 1 14 1 15
ROOT
ATOM      1  C   UNL     1       4.519  -8.562   8.145  1.00  0.00     0.050 C 
ENDROOT
BRANCH   1   2
ATOM      2  C   UNL     1       5.560  -7.500   8.036  1.00  0.00    -0.043 A 
ATOM      3  C   UNL     1       6.349  -5.281   8.572  1.00  0.00     0.157 A 
ATOM      4  C   UNL     1       5.376  -6.274   8.675  1.00  0.00     0.054 A 
ATOM      5  C   UNL     1       7.508  -5.513   7.829  1.00  0.00     0.157 A 
ATOM      6  C   UNL     1       7.692  -6.739   7.190  1.00  0.00     0.050 A 
ATOM      7  C   UNL     1       6.719  -7.733   7.294  1.00  0.00     0.008 A 
BRANCH   3   8
ATOM      8  O   UNL     1       6.158  -4.088   9.202  1.00  0.00    -0.504 OA
ATOM      9  H   UNL     1       5.808  -3.452   8.553  1.00  0.00     0.293 HD
ENDBRANCH   3   8
BRANCH   5  10
ATOM     10  O   UNL     1       8.466  -4.551   7.722  1.00  0.00    -0.504 OA
ATOM     11  H   UNL     1       8.451  -3.999   8.522  1.00  0.00     0.293 HD
ENDBRANCH   5  10
ENDBRANCH   1   2
BRANCH   1  12
ATOM     12  C   UNL     1       3.300  -8.096   8.954  1.00  0.00     0.082 C 
BRANCH  12  13
ATOM     13  N   UNL     1       2.067  -8.704   8.463  1.00  0.00    -0.330 NA
ATOM     14  H   UNL     1       2.265  -9.240   7.619  1.00  0.00     0.118 HD
ATOM     15  H   UNL     1       1.415  -7.973   8.183  1.00  0.00     0.118 HD
ENDBRANCH  12  13
ENDBRANCH   1  12
TORSDOF 5
ENDMDL
