MODEL 1
REMARK VINA RESULT:    -5.094      0.000      0.000
REMARK INTER + INTRA:          -6.210
REMARK INTER:                  -6.137
REMARK INTRA:                  -0.073
REMARK UNBOUND:                -0.073
REMARK SMILES NCCc1ccc(O)c(O)c1
REMARK SMILES IDX 3 1 4 2 9 3 11 4 7 5 6 6 5 7 10 8 8 10 2 12 1 13
REMARK H PARENT 10 9 8 11 1 14 1 15
ROOT
ATOM      1  C   UNL     1     -18.337 -14.929   0.686  1.00  0.00     0.050 C 
ENDROOT
BRANCH   1   2
ATOM      2  C   UNL     1     -19.086 -14.983   1.974  1.00  0.00    -0.043 A 
ATOM      3  C   UNL     1     -20.385 -16.224   3.589  1.00  0.00     0.157 A 
ATOM      4  C   UNL     1     -19.684 -16.174   2.385  1.00  0.00     0.054 A 
ATOM      5  C   UNL     1     -20.489 -15.082   4.384  1.00  0.00     0.157 A 
ATOM      6  C   UNL     1     -19.891 -13.890   3.973  1.00  0.00     0.050 A 
ATOM      7  C   UNL     1     -19.189 -13.840   2.769  1.00  0.00     0.008 A 
BRANCH   3   8
ATOM      8  O   UNL     1     -20.964 -17.394   3.979  1.00  0.00    -0.504 OA
ATOM      9  H   UNL     1     -21.843 -17.453   3.566  1.00  0.00     0.293 HD
ENDBRANCH   3   8
BRANCH   5  10
ATOM     10  O   UNL     1     -21.171 -15.118   5.562  1.00  0.00    -0.504 OA
ATOM     11  H   UNL     1     -20.622 -14.717   6.258  1.00  0.00     0.293 HD
ENDBRANCH   5  10
ENDBRANCH   1   2
BRANCH   1  12
ATOM     12  C   UNL     1     -17.903 -13.500   0.329  1.00  0.00     0.082 C 
BRANCH  12  13
ATOM     13  N   UNL     1     -17.177 -13.461  -0.936  1.00  0.00    -0.330 NA
ATOM     14  H   UNL     1     -17.755 -13.012  -1.646  1.00  0.00     0.118 HD
ATOM     15  H   UNL     1     -17.018 -14.411  -1.267  1.00  0.00     0.118 HD
ENDBRANCH  12  13
ENDBRANCH   1  12
TORSDOF 5
ENDMDL
MODEL 2
REMARK VINA RESULT:    -5.013      4.650      6.299
REMARK INTER + INTRA:          -6.111
REMARK INTER:                  -6.035
REMARK INTRA:                  -0.076
REMARK UNBOUND:                -0.073
REMARK SMILES NCCc1ccc(O)c(O)c1
REMARK SMILES IDX 3 1 4 2 9 3 11 4 7 5 6 6 5 7 10 8 8 10 2 12 1 13
REMARK H PARENT 10 9 8 11 1 14 1 15
ROOT
ATOM      1  C   UNL     1     -22.436 -15.922   8.161  1.00  0.00     0.050 C 
ENDROOT
BRANCH   1   2
ATOM      2  C   UNL     1     -21.806 -16.100   6.821  1.00  0.00    -0.043 A 
ATOM      3  C   UNL     1     -21.149 -15.192   4.681  1.00  0.00     0.157 A 
ATOM      4  C   UNL     1     -21.737 -15.026   5.934  1.00  0.00     0.054 A 
ATOM      5  C   UNL     1     -20.629 -16.435   4.313  1.00  0.00     0.157 A 
ATOM      6  C   UNL     1     -20.698 -17.509   5.200  1.00  0.00     0.050 A 
ATOM      7  C   UNL     1     -21.285 -17.342   6.454  1.00  0.00     0.008 A 
BRANCH   3   8
ATOM      8  O   UNL     1     -21.087 -14.136   3.823  1.00  0.00    -0.504 OA
ATOM      9  H   UNL     1     -21.623 -13.411   4.191  1.00  0.00     0.293 HD
ENDBRANCH   3   8
BRANCH   5  10
ATOM     10  O   UNL     1     -20.052 -16.610   3.092  1.00  0.00    -0.504 OA
ATOM     11  H   UNL     1     -19.758 -15.747   2.754  1.00  0.00     0.293 HD
ENDBRANCH   5  10
ENDBRANCH   1   2
BRANCH   1  12
ATOM     12  C   UNL     1     -23.130 -14.560   8.296  1.00  0.00     0.082 C 
BRANCH  12  13
ATOM     13  N   UNL     1     -23.233 -14.148   9.692  1.00  0.00    -0.330 NA
ATOM     14  H   UNL     1     -22.538 -14.647  10.247  1.00  0.00     0.118 HD
ATOM     15  H   UNL     1     -24.139 -14.428  10.064  1.00  0.00     0.118 HD
ENDBRANCH  12  13
ENDBRANCH   1  12
TORSDOF 5
ENDMDL
MODEL 3
REMARK VINA RESULT:    -4.948      4.883      6.289
REMARK INTER + INTRA:          -6.033
REMARK INTER:                  -5.960
REMARK INTRA:                  -0.073
REMARK UNBOUND:                -0.073
REMARK SMILES NCCc1ccc(O)c(O)c1
REMARK SMILES IDX 3 1 4 2 9 3 11 4 7 5 6 6 5 7 10 8 8 10 2 12 1 13
REMARK H PARENT 10 9 8 11 1 14 1 15
ROOT
ATOM      1  C   UNL     1     -22.560 -15.752   8.406  1.00  0.00     0.050 C 
ENDROOT
BRANCH   1   2
ATOM      2  C   UNL     1     -21.925 -15.982   7.077  1.00  0.00    -0.043 A 
ATOM      3  C   UNL     1     -20.886 -17.473   5.485  1.00  0.00     0.157 A 
ATOM      4  C   UNL     1     -21.481 -17.258   6.727  1.00  0.00     0.054 A 
ATOM      5  C   UNL     1     -20.735 -16.412   4.590  1.00  0.00     0.157 A 
ATOM      6  C   UNL     1     -21.179 -15.137   4.939  1.00  0.00     0.050 A 
ATOM      7  C   UNL     1     -21.774 -14.922   6.182  1.00  0.00     0.008 A 
BRANCH   3   8
ATOM      8  O   UNL     1     -20.457 -18.723   5.155  1.00  0.00    -0.504 OA
ATOM      9  H   UNL     1     -21.202 -19.340   5.259  1.00  0.00     0.293 HD
ENDBRANCH   3   8
BRANCH   5  10
ATOM     10  O   UNL     1     -20.156 -16.610   3.373  1.00  0.00    -0.504 OA
ATOM     11  H   UNL     1     -19.215 -16.822   3.501  1.00  0.00     0.293 HD
ENDBRANCH   5  10
ENDBRANCH   1   2
BRANCH   1  12
ATOM     12  C   UNL     1     -23.190 -14.356   8.511  1.00  0.00     0.082 C 
BRANCH  12  13
ATOM     13  N   UNL     1     -24.080 -14.255   9.664  1.00  0.00    -0.330 NA
ATOM     14  H   UNL     1     -24.191 -13.275   9.922  1.00  0.00     0.118 HD
ATOM     15  H   UNL     1     -23.648 -14.708  10.467  1.00  0.00     0.118 HD
ENDBRANCH  12  13
ENDBRANCH   1  12
TORSDOF 5
ENDMDL
MODEL 4
REMARK VINA RESULT:    -4.864      1.857      2.631
REMARK INTER + INTRA:          -5.932
REMARK INTER:                  -5.860
REMARK INTRA:                  -0.071
REMARK UNBOUND:                -0.073
REMARK SMILES NCCc1ccc(O)c(O)c1
REMARK SMILES IDX 3 1 4 2 9 3 11 4 7 5 6 6 5 7 10 8 8 10 2 12 1 13
REMARK H PARENT 10 9 8 11 1 14 1 15
ROOT
ATOM      1  C   UNL     1     -19.466 -14.479   3.226  1.00  0.00     0.050 C 
ENDROOT
BRANCH   1   2
ATOM      2  C   UNL     1     -20.163 -15.277   4.275  1.00  0.00    -0.043 A 
ATOM      3  C   UNL     1     -20.839 -17.415   5.173  1.00  0.00     0.157 A 
ATOM      4  C   UNL     1     -20.187 -16.669   4.193  1.00  0.00     0.054 A 
ATOM      5  C   UNL     1     -21.470 -16.769   6.238  1.00  0.00     0.157 A 
ATOM      6  C   UNL     1     -21.446 -15.377   6.321  1.00  0.00     0.050 A 
ATOM      7  C   UNL     1     -20.793 -14.631   5.340  1.00  0.00     0.008 A 
BRANCH   3   8
ATOM      8  O   UNL     1     -20.855 -18.775   5.082  1.00  0.00    -0.504 OA
ATOM      9  H   UNL     1     -20.946 -19.017   4.144  1.00  0.00     0.293 HD
ENDBRANCH   3   8
BRANCH   5  10
ATOM     10  O   UNL     1     -22.110 -17.487   7.202  1.00  0.00    -0.504 OA
ATOM     11  H   UNL     1     -21.455 -18.015   7.691  1.00  0.00     0.293 HD
ENDBRANCH   5  10
ENDBRANCH   1   2
BRANCH   1  12
ATOM     12  C   UNL     1     -19.062 -15.338   2.020  1.00  0.00     0.082 C 
BRANCH  12  13
ATOM     13  N   UNL     1     -18.691 -14.513   0.875  1.00  0.00    -0.330 NA
ATOM     14  H   UNL     1     -18.819 -15.047   0.015  1.00  0.00     0.118 HD
ATOM     15  H   UNL     1     -17.698 -14.294   0.921  1.00  0.00     0.118 HD
ENDBRANCH  12  13
ENDBRANCH   1  12
TORSDOF 5
ENDMDL
MODEL 5
REMARK VINA RESULT:    -4.839      3.763      5.060
REMARK INTER + INTRA:          -5.902
REMARK INTER:                  -5.842
REMARK INTRA:                  -0.060
REMARK UNBOUND:                -0.073
REMARK SMILES NCCc1ccc(O)c(O)c1
REMARK SMILES IDX 3 1 4 2 9 3 11 4 7 5 6 6 5 7 10 8 8 10 2 12 1 13
REMARK H PARENT 10 9 8 11 1 14 1 15
ROOT
ATOM      1  C   UNL     1     -21.111 -15.419   6.764  1.00  0.00     0.050 C 
ENDROOT
BRANCH   1   2
ATOM      2  C   UNL     1     -20.656 -15.239   5.355  1.00  0.00    -0.043 A 
ATOM      3  C   UNL     1     -20.722 -15.904   3.034  1.00  0.00     0.157 A 
ATOM      4  C   UNL     1     -21.149 -16.072   4.350  1.00  0.00     0.054 A 
ATOM      5  C   UNL     1     -19.801 -14.903   2.721  1.00  0.00     0.157 A 
ATOM      6  C   UNL     1     -19.308 -14.070   3.725  1.00  0.00     0.050 A 
ATOM      7  C   UNL     1     -19.736 -14.238   5.042  1.00  0.00     0.008 A 
BRANCH   3   8
ATOM      8  O   UNL     1     -21.211 -16.723   2.061  1.00  0.00    -0.504 OA
ATOM      9  H   UNL     1     -21.971 -16.281   1.642  1.00  0.00     0.293 HD
ENDBRANCH   3   8
BRANCH   5  10
ATOM     10  O   UNL     1     -19.377 -14.728   1.438  1.00  0.00    -0.504 OA
ATOM     11  H   UNL     1     -19.492 -13.795   1.191  1.00  0.00     0.293 HD
ENDBRANCH   5  10
ENDBRANCH   1   2
BRANCH   1  12
ATOM     12  C   UNL     1     -22.630 -15.617   6.859  1.00  0.00     0.082 C 
BRANCH  12  13
ATOM     13  N   UNL     1     -22.970 -16.984   7.241  1.00  0.00    -0.330 NA
ATOM     14  H   UNL     1     -23.355 -17.476   6.435  1.00  0.00     0.118 HD
ATOM     15  H   UNL     1     -23.713 -16.968   7.938  1.00  0.00     0.118 HD
ENDBRANCH  12  13
ENDBRANCH   1  12
TORSDOF 5
ENDMDL
MODEL 6
REMARK VINA RESULT:    -4.655      7.803      8.987
REMARK INTER + INTRA:          -5.680
REMARK INTER:                  -5.628
REMARK INTRA:                  -0.052
REMARK UNBOUND:                -0.073
REMARK SMILES NCCc1ccc(O)c(O)c1
REMARK SMILES IDX 3 1 4 2 9 3 11 4 7 5 6 6 5 7 10 8 8 10 2 12 1 13
REMARK H PARENT 10 9 8 11 1 14 1 15
ROOT
ATOM      1  C   UNL     1     -25.766  -9.782   5.488  1.00  0.00     0.050 C 
ENDROOT
BRANCH   1   2
ATOM      2  C   UNL     1     -24.394  -9.435   5.019  1.00  0.00    -0.043 A 
ATOM      3  C   UNL     1     -22.214  -8.486   5.447  1.00  0.00     0.157 A 
ATOM      4  C   UNL     1     -23.497  -8.811   5.886  1.00  0.00     0.054 A 
ATOM      5  C   UNL     1     -21.827  -8.784   4.140  1.00  0.00     0.157 A 
ATOM      6  C   UNL     1     -22.724  -9.408   3.273  1.00  0.00     0.050 A 
ATOM      7  C   UNL     1     -24.007  -9.734   3.712  1.00  0.00     0.008 A 
BRANCH   3   8
ATOM      8  O   UNL     1     -21.347  -7.877   6.303  1.00  0.00    -0.504 OA
ATOM      9  H   UNL     1     -21.862  -7.467   7.020  1.00  0.00     0.293 HD
ENDBRANCH   3   8
BRANCH   5  10
ATOM     10  O   UNL     1     -20.577  -8.472   3.699  1.00  0.00    -0.504 OA
ATOM     11  H   UNL     1     -20.584  -7.569   3.339  1.00  0.00     0.293 HD
ENDBRANCH   5  10
ENDBRANCH   1   2
BRANCH   1  12
ATOM     12  C   UNL     1     -26.674  -8.548   5.580  1.00  0.00     0.082 C 
BRANCH  12  13
ATOM     13  N   UNL     1     -26.778  -8.060   6.952  1.00  0.00    -0.330 NA
ATOM     14  H   UNL     1     -27.701  -8.282   7.323  1.00  0.00     0.118 HD
ATOM     15  H   UNL     1     -26.712  -7.044   6.957  1.00  0.00     0.118 HD
ENDBRANCH  12  13
ENDBRANCH   1  12
TORSDOF 5
ENDMDL
MODEL 7
REMARK VINA RESULT:    -4.578      3.066      4.305
REMARK INTER + INTRA:          -5.587
REMARK INTER:                  -5.517
REMARK INTRA:                  -0.070
REMARK UNBOUND:                -0.073
REMARK SMILES NCCc1ccc(O)c(O)c1
REMARK SMILES IDX 3 1 4 2 9 3 11 4 7 5 6 6 5 7 10 8 8 10 2 12 1 13
REMARK H PARENT 10 9 8 11 1 14 1 15
ROOT
ATOM      1  C   UNL     1     -19.458 -15.691   4.113  1.00  0.00     0.050 C 
ENDROOT
BRANCH   1   2
ATOM      2  C   UNL     1     -20.392 -16.121   5.193  1.00  0.00    -0.043 A 
ATOM      3  C   UNL     1     -22.084 -15.585   6.832  1.00  0.00     0.157 A 
ATOM      4  C   UNL     1     -21.211 -15.183   5.821  1.00  0.00     0.054 A 
ATOM      5  C   UNL     1     -22.137 -16.926   7.216  1.00  0.00     0.157 A 
ATOM      6  C   UNL     1     -21.317 -17.864   6.588  1.00  0.00     0.050 A 
ATOM      7  C   UNL     1     -20.445 -17.462   5.577  1.00  0.00     0.008 A 
BRANCH   3   8
ATOM      8  O   UNL     1     -22.880 -14.660   7.438  1.00  0.00    -0.504 OA
ATOM      9  H   UNL     1     -23.682 -14.547   6.899  1.00  0.00     0.293 HD
ENDBRANCH   3   8
BRANCH   5  10
ATOM     10  O   UNL     1     -22.985 -17.331   8.202  1.00  0.00    -0.504 OA
ATOM     11  H   UNL     1     -22.963 -18.301   8.260  1.00  0.00     0.293 HD
ENDBRANCH   5  10
ENDBRANCH   1   2
BRANCH   1  12
ATOM     12  C   UNL     1     -20.203 -15.284   2.834  1.00  0.00     0.082 C 
BRANCH  12  13
ATOM     13  N   UNL     1     -20.997 -16.387   2.302  1.00  0.00    -0.330 NA
ATOM     14  H   UNL     1     -21.576 -16.051   1.534  1.00  0.00     0.118 HD
ATOM     15  H   UNL     1     -21.645 -16.715   3.017  1.00  0.00     0.118 HD
ENDBRANCH  12  13
ENDBRANCH   1  12
TORSDOF 5
ENDMDL
MODEL 8
REMARK VINA RESULT:    -4.375      3.716      4.814
REMARK INTER + INTRA:          -5.343
REMARK INTER:                  -5.267
REMARK INTRA:                  -0.076
REMARK UNBOUND:                -0.073
REMARK SMILES NCCc1ccc(O)c(O)c1
REMARK SMILES IDX 3 1 4 2 9 3 11 4 7 5 6 6 5 7 10 8 8 10 2 12 1 13
REMARK H PARENT 10 9 8 11 1 14 1 15
ROOT
ATOM      1  C   UNL     1     -20.496 -16.560   4.647  1.00  0.00     0.050 C 
ENDROOT
BRANCH   1   2
ATOM      2  C   UNL     1     -21.334 -16.318   5.856  1.00  0.00    -0.043 A 
ATOM      3  C   UNL     1     -22.370 -17.132   7.881  1.00  0.00     0.157 A 
ATOM      4  C   UNL     1     -21.586 -17.359   6.751  1.00  0.00     0.054 A 
ATOM      5  C   UNL     1     -22.905 -15.865   8.117  1.00  0.00     0.157 A 
ATOM      6  C   UNL     1     -22.653 -14.825   7.223  1.00  0.00     0.050 A 
ATOM      7  C   UNL     1     -21.867 -15.051   6.093  1.00  0.00     0.008 A 
BRANCH   3   8
ATOM      8  O   UNL     1     -22.608 -18.156   8.747  1.00  0.00    -0.504 OA
ATOM      9  H   UNL     1     -21.808 -18.297   9.282  1.00  0.00     0.293 HD
ENDBRANCH   3   8
BRANCH   5  10
ATOM     10  O   UNL     1     -23.672 -15.631   9.218  1.00  0.00    -0.504 OA
ATOM     11  H   UNL     1     -24.420 -16.253   9.220  1.00  0.00     0.293 HD
ENDBRANCH   5  10
ENDBRANCH   1   2
BRANCH   1  12
ATOM     12  C   UNL     1     -20.879 -15.635   3.483  1.00  0.00     0.082 C 
BRANCH  12  13
ATOM     13  N   UNL     1     -21.123 -16.388   2.258  1.00  0.00    -0.330 NA
ATOM     14  H   UNL     1     -22.118 -16.593   2.176  1.00  0.00     0.118 HD
ATOM     15  H   UNL     1     -20.657 -17.292   2.315  1.00  0.00     0.118 HD
ENDBRANCH  12  13
ENDBRANCH   1  12
TORSDOF 5
ENDMDL
MODEL 9
REMARK VINA RESULT:    -4.365      4.532      6.082
REMARK INTER + INTRA:          -5.330
REMARK INTER:                  -5.235
REMARK INTRA:                  -0.095
REMARK UNBOUND:                -0.073
REMARK SMILES NCCc1ccc(O)c(O)c1
REMARK SMILES IDX 3 1 4 2 9 3 11 4 7 5 6 6 5 7 10 8 8 10 2 12 1 13
REMARK H PARENT 10 9 8 11 1 14 1 15
ROOT
ATOM      1  C   UNL     1     -21.155 -15.339   5.575  1.00  0.00     0.050 C 
ENDROOT
BRANCH   1   2
ATOM      2  C   UNL     1     -21.951 -15.757   6.764  1.00  0.00    -0.043 A 
ATOM      3  C   UNL     1     -23.433 -15.203   8.591  1.00  0.00     0.157 A 
ATOM      4  C   UNL     1     -22.689 -14.812   7.478  1.00  0.00     0.054 A 
ATOM      5  C   UNL     1     -23.438 -16.540   8.991  1.00  0.00     0.157 A 
ATOM      6  C   UNL     1     -22.701 -17.485   8.278  1.00  0.00     0.050 A 
ATOM      7  C   UNL     1     -21.958 -17.094   7.165  1.00  0.00     0.008 A 
BRANCH   3   8
ATOM      8  O   UNL     1     -24.149 -14.271   9.279  1.00  0.00    -0.504 OA
ATOM      9  H   UNL     1     -25.061 -14.275   8.939  1.00  0.00     0.293 HD
ENDBRANCH   3   8
BRANCH   5  10
ATOM     10  O   UNL     1     -24.161 -16.935  10.076  1.00  0.00    -0.504 OA
ATOM     11  H   UNL     1     -24.726 -17.685   9.824  1.00  0.00     0.293 HD
ENDBRANCH   5  10
ENDBRANCH   1   2
BRANCH   1  12
ATOM     12  C   UNL     1     -20.199 -16.443   5.102  1.00  0.00     0.082 C 
BRANCH  12  13
ATOM     13  N   UNL     1     -20.511 -16.876   3.744  1.00  0.00    -0.330 NA
ATOM     14  H   UNL     1     -20.936 -17.803   3.771  1.00  0.00     0.118 HD
ATOM     15  H   UNL     1     -19.648 -16.981   3.213  1.00  0.00     0.118 HD
ENDBRANCH  12  13
ENDBRANCH   1  12
TORSDOF 5
ENDMDL
