MODEL 1
REMARK VINA RESULT:    -5.529      0.000      0.000
REMARK INTER + INTRA:          -6.703
REMARK INTER:                  -6.660
REMARK INTRA:                  -0.042
REMARK UNBOUND:                -0.042
REMARK SMILES NCCc1ccc(O)c(O)c1
REMARK SMILES IDX 3 1 4 2 9 3 11 4 7 5 6 6 5 7 10 8 8 10 2 12 1 13
REMARK H PARENT 10 9 8 11 1 14 1 15
ROOT
ATOM      1  C   UNL     1     -23.920  11.250   4.953  1.00  0.00     0.050 C 
ENDROOT
BRANCH   1   2
ATOM      2  C   UNL     1     -24.832  10.077   5.083  1.00  0.00    -0.043 A 
ATOM      3  C   UNL     1     -25.304   7.740   4.692  1.00  0.00     0.157 A 
ATOM      4  C   UNL     1     -24.451   8.836   4.571  1.00  0.00     0.054 A 
ATOM      5  C   UNL     1     -26.540   7.884   5.323  1.00  0.00     0.157 A 
ATOM      6  C   UNL     1     -26.922   9.124   5.835  1.00  0.00     0.050 A 
ATOM      7  C   UNL     1     -26.068  10.220   5.715  1.00  0.00     0.008 A 
BRANCH   3   8
ATOM      8  O   UNL     1     -24.920   6.533   4.189  1.00  0.00    -0.504 OA
ATOM      9  H   UNL     1     -25.222   6.477   3.265  1.00  0.00     0.293 HD
ENDBRANCH   3   8
BRANCH   5  10
ATOM     10  O   UNL     1     -27.382   6.820   5.447  1.00  0.00    -0.504 OA
ATOM     11  H   UNL     1     -28.136   6.942   4.845  1.00  0.00     0.293 HD
ENDBRANCH   5  10
ENDBRANCH   1   2
BRANCH   1  12
ATOM     12  C   UNL     1     -22.472  10.900   5.324  1.00  0.00     0.082 C 
BRANCH  12  13
ATOM     13  N   UNL     1     -21.619  10.826   4.142  1.00  0.00    -0.330 NA
ATOM     14  H   UNL     1     -22.137  10.397   3.375  1.00  0.00     0.118 HD
ATOM     15  H   UNL     1     -20.833  10.207   4.328  1.00  0.00     0.118 HD
ENDBRANCH  12  13
ENDBRANCH   1  12
TORSDOF 5
ENDMDL
MODEL 2
REMARK VINA RESULT:    -5.432      2.722      3.598
REMARK INTER + INTRA:          -6.586
REMARK INTER:                  -6.539
REMARK INTRA:                  -0.047
REMARK UNBOUND:                -0.042
REMARK SMILES NCCc1ccc(O)c(O)c1
REMARK SMILES IDX 3 1 4 2 9 3 11 4 7 5 6 6 5 7 10 8 8 10 2 12 1 13
REMARK H PARENT 10 9 8 11 1 14 1 15
ROOT
ATOM      1  C   UNL     1     -27.533  10.702   6.796  1.00  0.00     0.050 C 
ENDROOT
BRANCH   1   2
ATOM      2  C   UNL     1     -26.952   9.551   6.047  1.00  0.00    -0.043 A 
ATOM      3  C   UNL     1     -25.144   8.584   4.769  1.00  0.00     0.157 A 
ATOM      4  C   UNL     1     -25.687   9.661   5.470  1.00  0.00     0.054 A 
ATOM      5  C   UNL     1     -25.867   7.397   4.644  1.00  0.00     0.157 A 
ATOM      6  C   UNL     1     -27.133   7.287   5.221  1.00  0.00     0.050 A 
ATOM      7  C   UNL     1     -27.675   8.364   5.922  1.00  0.00     0.008 A 
BRANCH   3   8
ATOM      8  O   UNL     1     -23.907   8.703   4.211  1.00  0.00    -0.504 OA
ATOM      9  H   UNL     1     -23.250   8.738   4.928  1.00  0.00     0.293 HD
ENDBRANCH   3   8
BRANCH   5  10
ATOM     10  O   UNL     1     -25.348   6.339   3.962  1.00  0.00    -0.504 OA
ATOM     11  H   UNL     1     -25.226   6.591   3.031  1.00  0.00     0.293 HD
ENDBRANCH   5  10
ENDBRANCH   1   2
BRANCH   1  12
ATOM     12  C   UNL     1     -28.034  10.293   8.188  1.00  0.00     0.082 C 
BRANCH  12  13
ATOM     13  N   UNL     1     -26.965   9.708   8.991  1.00  0.00    -0.330 NA
ATOM     14  H   UNL     1     -26.232   9.353   8.376  1.00  0.00     0.118 HD
ATOM     15  H   UNL     1     -27.321   8.898   9.495  1.00  0.00     0.118 HD
ENDBRANCH  12  13
ENDBRANCH   1  12
TORSDOF 5
ENDMDL
MODEL 3
REMARK VINA RESULT:    -5.076      0.899      2.071
REMARK INTER + INTRA:          -6.157
REMARK INTER:                  -6.088
REMARK INTRA:                  -0.069
REMARK UNBOUND:                -0.042
REMARK SMILES NCCc1ccc(O)c(O)c1
REMARK SMILES IDX 3 1 4 2 9 3 11 4 7 5 6 6 5 7 10 8 8 10 2 12 1 13
REMARK H PARENT 10 9 8 11 1 14 1 15
ROOT
ATOM      1  C   UNL     1     -23.849  11.274   4.885  1.00  0.00     0.050 C 
ENDROOT
BRANCH   1   2
ATOM      2  C   UNL     1     -24.798  10.136   5.052  1.00  0.00    -0.043 A 
ATOM      3  C   UNL     1     -26.818   9.219   6.009  1.00  0.00     0.157 A 
ATOM      4  C   UNL     1     -25.931  10.283   5.852  1.00  0.00     0.054 A 
ATOM      5  C   UNL     1     -26.572   8.005   5.366  1.00  0.00     0.157 A 
ATOM      6  C   UNL     1     -25.439   7.857   4.566  1.00  0.00     0.050 A 
ATOM      7  C   UNL     1     -24.553   8.922   4.408  1.00  0.00     0.008 A 
BRANCH   3   8
ATOM      8  O   UNL     1     -27.921   9.376   6.793  1.00  0.00    -0.504 OA
ATOM      9  H   UNL     1     -28.199   8.498   7.109  1.00  0.00     0.293 HD
ENDBRANCH   3   8
BRANCH   5  10
ATOM     10  O   UNL     1     -27.431   6.958   5.511  1.00  0.00    -0.504 OA
ATOM     11  H   UNL     1     -27.751   6.687   4.634  1.00  0.00     0.293 HD
ENDBRANCH   5  10
ENDBRANCH   1   2
BRANCH   1  12
ATOM     12  C   UNL     1     -22.414  10.891   5.272  1.00  0.00     0.082 C 
BRANCH  12  13
ATOM     13  N   UNL     1     -21.545  10.818   4.101  1.00  0.00    -0.330 NA
ATOM     14  H   UNL     1     -21.398  11.755   3.728  1.00  0.00     0.118 HD
ATOM     15  H   UNL     1     -22.012  10.294   3.363  1.00  0.00     0.118 HD
ENDBRANCH  12  13
ENDBRANCH   1  12
TORSDOF 5
ENDMDL
MODEL 4
REMARK VINA RESULT:    -5.057      2.613      3.339
REMARK INTER + INTRA:          -6.134
REMARK INTER:                  -6.045
REMARK INTRA:                  -0.089
REMARK UNBOUND:                -0.042
REMARK SMILES NCCc1ccc(O)c(O)c1
REMARK SMILES IDX 3 1 4 2 9 3 11 4 7 5 6 6 5 7 10 8 8 10 2 12 1 13
REMARK H PARENT 10 9 8 11 1 14 1 15
ROOT
ATOM      1  C   UNL     1     -27.553  10.928   6.427  1.00  0.00     0.050 C 
ENDROOT
BRANCH   1   2
ATOM      2  C   UNL     1     -26.967   9.695   5.826  1.00  0.00    -0.043 A 
ATOM      3  C   UNL     1     -25.120   8.562   4.757  1.00  0.00     0.157 A 
ATOM      4  C   UNL     1     -25.668   9.715   5.319  1.00  0.00     0.054 A 
ATOM      5  C   UNL     1     -25.873   7.388   4.701  1.00  0.00     0.157 A 
ATOM      6  C   UNL     1     -27.172   7.368   5.208  1.00  0.00     0.050 A 
ATOM      7  C   UNL     1     -27.719   8.521   5.771  1.00  0.00     0.008 A 
BRANCH   3   8
ATOM      8  O   UNL     1     -23.850   8.594   4.266  1.00  0.00    -0.504 OA
ATOM      9  H   UNL     1     -23.426   9.416   4.568  1.00  0.00     0.293 HD
ENDBRANCH   3   8
BRANCH   5  10
ATOM     10  O   UNL     1     -25.349   6.256   4.155  1.00  0.00    -0.504 OA
ATOM     11  H   UNL     1     -25.771   5.482   4.565  1.00  0.00     0.293 HD
ENDBRANCH   5  10
ENDBRANCH   1   2
BRANCH   1  12
ATOM     12  C   UNL     1     -27.683  12.064   5.402  1.00  0.00     0.082 C 
BRANCH  12  13
ATOM     13  N   UNL     1     -28.504  11.667   4.263  1.00  0.00    -0.330 NA
ATOM     14  H   UNL     1     -28.549  10.649   4.214  1.00  0.00     0.118 HD
ATOM     15  H   UNL     1     -28.055  11.967   3.399  1.00  0.00     0.118 HD
ENDBRANCH  12  13
ENDBRANCH   1  12
TORSDOF 5
ENDMDL
MODEL 5
REMARK VINA RESULT:    -5.018      3.178      4.280
REMARK INTER + INTRA:          -6.087
REMARK INTER:                  -6.064
REMARK INTRA:                  -0.022
REMARK UNBOUND:                -0.042
REMARK SMILES NCCc1ccc(O)c(O)c1
REMARK SMILES IDX 3 1 4 2 9 3 11 4 7 5 6 6 5 7 10 8 8 10 2 12 1 13
REMARK H PARENT 10 9 8 11 1 14 1 15
ROOT
ATOM      1  C   UNL     1     -26.519   8.249   5.147  1.00  0.00     0.050 C 
ENDROOT
BRANCH   1   2
ATOM      2  C   UNL     1     -25.697   9.493   5.109  1.00  0.00    -0.043 A 
ATOM      3  C   UNL     1     -23.592  10.598   4.678  1.00  0.00     0.157 A 
ATOM      4  C   UNL     1     -24.361   9.435   4.712  1.00  0.00     0.054 A 
ATOM      5  C   UNL     1     -24.159  11.820   5.041  1.00  0.00     0.157 A 
ATOM      6  C   UNL     1     -25.495  11.878   5.439  1.00  0.00     0.050 A 
ATOM      7  C   UNL     1     -26.264  10.715   5.472  1.00  0.00     0.008 A 
BRANCH   3   8
ATOM      8  O   UNL     1     -22.289  10.528   4.287  1.00  0.00    -0.504 OA
ATOM      9  H   UNL     1     -21.766  11.118   4.858  1.00  0.00     0.293 HD
ENDBRANCH   3   8
BRANCH   5  10
ATOM     10  O   UNL     1     -23.418  12.963   5.012  1.00  0.00    -0.504 OA
ATOM     11  H   UNL     1     -23.939  13.687   5.398  1.00  0.00     0.293 HD
ENDBRANCH   5  10
ENDBRANCH   1   2
BRANCH   1  12
ATOM     12  C   UNL     1     -26.306   7.378   3.901  1.00  0.00     0.082 C 
BRANCH  12  13
ATOM     13  N   UNL     1     -25.475   6.215   4.195  1.00  0.00    -0.330 NA
ATOM     14  H   UNL     1     -24.887   6.005   3.389  1.00  0.00     0.118 HD
ATOM     15  H   UNL     1     -26.068   5.398   4.328  1.00  0.00     0.118 HD
ENDBRANCH  12  13
ENDBRANCH   1  12
TORSDOF 5
ENDMDL
MODEL 6
REMARK VINA RESULT:    -5.007      3.098      4.150
REMARK INTER + INTRA:          -6.073
REMARK INTER:                  -5.999
REMARK INTRA:                  -0.074
REMARK UNBOUND:                -0.042
REMARK SMILES NCCc1ccc(O)c(O)c1
REMARK SMILES IDX 3 1 4 2 9 3 11 4 7 5 6 6 5 7 10 8 8 10 2 12 1 13
REMARK H PARENT 10 9 8 11 1 14 1 15
ROOT
ATOM      1  C   UNL     1     -27.977  11.162   6.907  1.00  0.00     0.050 C 
ENDROOT
BRANCH   1   2
ATOM      2  C   UNL     1     -27.105  10.171   6.213  1.00  0.00    -0.043 A 
ATOM      3  C   UNL     1     -26.698   7.915   5.448  1.00  0.00     0.157 A 
ATOM      4  C   UNL     1     -27.514   8.842   6.097  1.00  0.00     0.054 A 
ATOM      5  C   UNL     1     -25.472   8.317   4.916  1.00  0.00     0.157 A 
ATOM      6  C   UNL     1     -25.063   9.645   5.033  1.00  0.00     0.050 A 
ATOM      7  C   UNL     1     -25.879  10.572   5.680  1.00  0.00     0.008 A 
BRANCH   3   8
ATOM      8  O   UNL     1     -27.109   6.621   5.340  1.00  0.00    -0.504 OA
ATOM      9  H   UNL     1     -26.519   6.067   5.881  1.00  0.00     0.293 HD
ENDBRANCH   3   8
BRANCH   5  10
ATOM     10  O   UNL     1     -24.667   7.421   4.281  1.00  0.00    -0.504 OA
ATOM     11  H   UNL     1     -23.952   7.902   3.830  1.00  0.00     0.293 HD
ENDBRANCH   5  10
ENDBRANCH   1   2
BRANCH   1  12
ATOM     12  C   UNL     1     -28.201  10.801   8.382  1.00  0.00     0.082 C 
BRANCH  12  13
ATOM     13  N   UNL     1     -29.601  10.954   8.765  1.00  0.00    -0.330 NA
ATOM     14  H   UNL     1     -29.712  11.806   9.313  1.00  0.00     0.118 HD
ATOM     15  H   UNL     1     -29.871  10.189   9.380  1.00  0.00     0.118 HD
ENDBRANCH  12  13
ENDBRANCH   1  12
TORSDOF 5
ENDMDL
MODEL 7
REMARK VINA RESULT:    -4.678     10.431     11.585
REMARK INTER + INTRA:          -5.677
REMARK INTER:                  -5.586
REMARK INTRA:                  -0.091
REMARK UNBOUND:                -0.042
REMARK SMILES NCCc1ccc(O)c(O)c1
REMARK SMILES IDX 3 1 4 2 9 3 11 4 7 5 6 6 5 7 10 8 8 10 2 12 1 13
REMARK H PARENT 10 9 8 11 1 14 1 15
ROOT
ATOM      1  C   UNL     1     -19.598  19.355  12.357  1.00  0.00     0.050 C 
ENDROOT
BRANCH   1   2
ATOM      2  C   UNL     1     -20.586  18.239  12.308  1.00  0.00    -0.043 A 
ATOM      3  C   UNL     1     -21.833  16.602  11.042  1.00  0.00     0.157 A 
ATOM      4  C   UNL     1     -20.909  17.645  11.088  1.00  0.00     0.054 A 
ATOM      5  C   UNL     1     -22.436  16.152  12.217  1.00  0.00     0.157 A 
ATOM      6  C   UNL     1     -22.114  16.746  13.438  1.00  0.00     0.050 A 
ATOM      7  C   UNL     1     -21.188  17.788  13.483  1.00  0.00     0.008 A 
BRANCH   3   8
ATOM      8  O   UNL     1     -22.140  16.030   9.844  1.00  0.00    -0.504 OA
ATOM      9  H   UNL     1     -22.412  15.110  10.005  1.00  0.00     0.293 HD
ENDBRANCH   3   8
BRANCH   5  10
ATOM     10  O   UNL     1     -23.340  15.134  12.186  1.00  0.00    -0.504 OA
ATOM     11  H   UNL     1     -23.211  14.622  11.369  1.00  0.00     0.293 HD
ENDBRANCH   5  10
ENDBRANCH   1   2
BRANCH   1  12
ATOM     12  C   UNL     1     -19.442  20.048  10.996  1.00  0.00     0.082 C 
BRANCH  12  13
ATOM     13  N   UNL     1     -18.059  20.012  10.532  1.00  0.00    -0.330 NA
ATOM     14  H   UNL     1     -17.841  19.080  10.183  1.00  0.00     0.118 HD
ATOM     15  H   UNL     1     -17.432  20.168  11.320  1.00  0.00     0.118 HD
ENDBRANCH  12  13
ENDBRANCH   1  12
TORSDOF 5
ENDMDL
MODEL 8
REMARK VINA RESULT:    -4.642      3.830      4.568
REMARK INTER + INTRA:          -5.634
REMARK INTER:                  -5.529
REMARK INTRA:                  -0.105
REMARK UNBOUND:                -0.042
REMARK SMILES NCCc1ccc(O)c(O)c1
REMARK SMILES IDX 3 1 4 2 9 3 11 4 7 5 6 6 5 7 10 8 8 10 2 12 1 13
REMARK H PARENT 10 9 8 11 1 14 1 15
ROOT
ATOM      1  C   UNL     1     -27.077   7.403   5.436  1.00  0.00     0.050 C 
ENDROOT
BRANCH   1   2
ATOM      2  C   UNL     1     -27.341   8.857   5.635  1.00  0.00    -0.043 A 
ATOM      3  C   UNL     1     -27.572  10.759   7.106  1.00  0.00     0.157 A 
ATOM      4  C   UNL     1     -27.324   9.400   6.920  1.00  0.00     0.054 A 
ATOM      5  C   UNL     1     -27.838  11.577   6.007  1.00  0.00     0.157 A 
ATOM      6  C   UNL     1     -27.855  11.034   4.722  1.00  0.00     0.050 A 
ATOM      7  C   UNL     1     -27.606   9.675   4.536  1.00  0.00     0.008 A 
BRANCH   3   8
ATOM      8  O   UNL     1     -27.553  11.278   8.366  1.00  0.00    -0.504 OA
ATOM      9  H   UNL     1     -28.137  12.056   8.385  1.00  0.00     0.293 HD
ENDBRANCH   3   8
BRANCH   5  10
ATOM     10  O   UNL     1     -28.082  12.907   6.176  1.00  0.00    -0.504 OA
ATOM     11  H   UNL     1     -27.564  13.408   5.523  1.00  0.00     0.293 HD
ENDBRANCH   5  10
ENDBRANCH   1   2
BRANCH   1  12
ATOM     12  C   UNL     1     -26.129   7.144   4.256  1.00  0.00     0.082 C 
BRANCH  12  13
ATOM     13  N   UNL     1     -24.731   7.197   4.670  1.00  0.00    -0.330 NA
ATOM     14  H   UNL     1     -24.565   8.054   5.198  1.00  0.00     0.118 HD
ATOM     15  H   UNL     1     -24.134   7.257   3.847  1.00  0.00     0.118 HD
ENDBRANCH  12  13
ENDBRANCH   1  12
TORSDOF 5
ENDMDL
MODEL 9
REMARK VINA RESULT:    -4.610      3.712      5.025
REMARK INTER + INTRA:          -5.596
REMARK INTER:                  -5.501
REMARK INTRA:                  -0.095
REMARK UNBOUND:                -0.042
REMARK SMILES NCCc1ccc(O)c(O)c1
REMARK SMILES IDX 3 1 4 2 9 3 11 4 7 5 6 6 5 7 10 8 8 10 2 12 1 13
REMARK H PARENT 10 9 8 11 1 14 1 15
ROOT
ATOM      1  C   UNL     1     -27.266   9.084   5.427  1.00  0.00     0.050 C 
ENDROOT
BRANCH   1   2
ATOM      2  C   UNL     1     -26.216  10.137   5.311  1.00  0.00    -0.043 A 
ATOM      3  C   UNL     1     -25.575  12.466   5.342  1.00  0.00     0.157 A 
ATOM      4  C   UNL     1     -26.557  11.482   5.451  1.00  0.00     0.054 A 
ATOM      5  C   UNL     1     -24.251  12.106   5.092  1.00  0.00     0.157 A 
ATOM      6  C   UNL     1     -23.909  10.760   4.952  1.00  0.00     0.050 A 
ATOM      7  C   UNL     1     -24.891   9.776   5.062  1.00  0.00     0.008 A 
BRANCH   3   8
ATOM      8  O   UNL     1     -25.921  13.777   5.481  1.00  0.00    -0.504 OA
ATOM      9  H   UNL     1     -25.813  14.215   4.619  1.00  0.00     0.293 HD
ENDBRANCH   3   8
BRANCH   5  10
ATOM     10  O   UNL     1     -23.283  13.057   4.983  1.00  0.00    -0.504 OA
ATOM     11  H   UNL     1     -22.418  12.651   5.161  1.00  0.00     0.293 HD
ENDBRANCH   5  10
ENDBRANCH   1   2
BRANCH   1  12
ATOM     12  C   UNL     1     -26.802   7.740   4.851  1.00  0.00     0.082 C 
BRANCH  12  13
ATOM     13  N   UNL     1     -26.800   6.693   5.868  1.00  0.00    -0.330 NA
ATOM     14  H   UNL     1     -25.876   6.636   6.296  1.00  0.00     0.118 HD
ATOM     15  H   UNL     1     -26.959   5.789   5.426  1.00  0.00     0.118 HD
ENDBRANCH  12  13
ENDBRANCH   1  12
TORSDOF 5
ENDMDL
