MODEL 1
REMARK VINA RESULT:    -6.129      0.000      0.000
REMARK INTER + INTRA:          -7.617
REMARK INTER:                  -7.383
REMARK INTRA:                  -0.234
REMARK UNBOUND:                -0.234
REMARK SMILES OC[C@H]1O[C@@H](O)[C@H](O)[C@@H](O)[C@@H]1O
REMARK SMILES IDX 4 1 11 2 9 3 3 4 7 5 5 6 2 7 1 8 6 10 12 12 8 14 10 16
REMARK H PARENT 1 9 6 11 12 13 8 15 10 17
ROOT
ATOM      1  O   UNL     1       0.339  -5.114   5.517  1.00  0.00    -0.342 OA
ATOM      2  C   UNL     1       0.101  -6.650   7.377  1.00  0.00     0.177 C 
ATOM      3  C   UNL     1      -1.421  -6.514   7.304  1.00  0.00     0.179 C 
ATOM      4  C   UNL     1       0.785  -5.389   6.846  1.00  0.00     0.178 C 
ATOM      5  C   UNL     1      -1.869  -6.043   5.921  1.00  0.00     0.201 C 
ATOM      6  C   UNL     1      -1.058  -4.833   5.456  1.00  0.00     0.279 C 
ENDROOT
BRANCH   4   7
ATOM      7  C   UNL     1       2.301  -5.546   6.800  1.00  0.00     0.191 C 
BRANCH   7   8
ATOM      8  O   UNL     1       2.843  -5.045   8.008  1.00  0.00    -0.394 OA
ATOM      9  H   UNL     1       3.810  -5.015   7.907  1.00  0.00     0.210 HD
ENDBRANCH   7   8
ENDBRANCH   4   7
BRANCH   6  10
ATOM     10  O   UNL     1      -1.433  -4.543   4.110  1.00  0.00    -0.366 OA
ATOM     11  H   UNL     1      -1.726  -3.617   4.064  1.00  0.00     0.213 HD
ENDBRANCH   6  10
BRANCH   2  12
ATOM     12  O   UNL     1       0.490  -6.864   8.730  1.00  0.00    -0.387 OA
ATOM     13  H   UNL     1       0.993  -6.085   9.025  1.00  0.00     0.211 HD
ENDBRANCH   2  12
BRANCH   5  14
ATOM     14  O   UNL     1      -3.245  -5.666   5.972  1.00  0.00    -0.385 OA
ATOM     15  H   UNL     1      -3.559  -5.551   5.059  1.00  0.00     0.211 HD
ENDBRANCH   5  14
BRANCH   3  16
ATOM     16  O   UNL     1      -1.992  -7.794   7.578  1.00  0.00    -0.387 OA
ATOM     17  H   UNL     1      -2.492  -7.718   8.410  1.00  0.00     0.211 HD
ENDBRANCH   3  16
TORSDOF 6
ENDMDL
MODEL 2
REMARK VINA RESULT:    -5.987      1.140      3.118
REMARK INTER + INTRA:          -7.446
REMARK INTER:                  -7.394
REMARK INTRA:                  -0.052
REMARK UNBOUND:                -0.234
REMARK SMILES OC[C@H]1O[C@@H](O)[C@H](O)[C@@H](O)[C@@H]1O
REMARK SMILES IDX 4 1 11 2 9 3 3 4 7 5 5 6 2 7 1 8 6 10 12 12 8 14 10 16
REMARK H PARENT 1 9 6 11 12 13 8 15 10 17
ROOT
ATOM      1  O   UNL     1       0.688  -5.409   7.152  1.00  0.00    -0.342 OA
ATOM      2  C   UNL     1      -1.044  -4.834   5.556  1.00  0.00     0.177 C 
ATOM      3  C   UNL     1      -1.863  -6.048   5.996  1.00  0.00     0.179 C 
ATOM      4  C   UNL     1       0.450  -5.075   5.784  1.00  0.00     0.178 C 
ATOM      5  C   UNL     1      -1.465  -6.504   7.400  1.00  0.00     0.201 C 
ATOM      6  C   UNL     1       0.052  -6.625   7.537  1.00  0.00     0.279 C 
ENDROOT
BRANCH   4   7
ATOM      7  C   UNL     1       1.278  -3.835   5.461  1.00  0.00     0.191 C 
BRANCH   7   8
ATOM      8  O   UNL     1       1.540  -3.142   6.668  1.00  0.00    -0.394 OA
ATOM      9  H   UNL     1       0.849  -2.467   6.776  1.00  0.00     0.210 HD
ENDBRANCH   7   8
ENDBRANCH   4   7
BRANCH   6  10
ATOM     10  O   UNL     1       0.349  -6.914   8.902  1.00  0.00    -0.366 OA
ATOM     11  H   UNL     1      -0.347  -7.494   9.254  1.00  0.00     0.213 HD
ENDBRANCH   6  10
BRANCH   2  12
ATOM     12  O   UNL     1      -1.276  -4.585   4.172  1.00  0.00    -0.387 OA
ATOM     13  H   UNL     1      -0.794  -5.258   3.662  1.00  0.00     0.211 HD
ENDBRANCH   2  12
BRANCH   5  14
ATOM     14  O   UNL     1      -2.042  -7.783   7.663  1.00  0.00    -0.385 OA
ATOM     15  H   UNL     1      -1.510  -8.217   8.352  1.00  0.00     0.211 HD
ENDBRANCH   5  14
BRANCH   3  16
ATOM     16  O   UNL     1      -3.242  -5.676   5.989  1.00  0.00    -0.387 OA
ATOM     17  H   UNL     1      -3.638  -6.042   5.180  1.00  0.00     0.211 HD
ENDBRANCH   3  16
TORSDOF 6
ENDMDL
MODEL 3
REMARK VINA RESULT:    -5.852      1.226      2.014
REMARK INTER + INTRA:          -7.283
REMARK INTER:                  -7.045
REMARK INTRA:                  -0.238
REMARK UNBOUND:                -0.234
REMARK SMILES OC[C@H]1O[C@@H](O)[C@H](O)[C@@H](O)[C@@H]1O
REMARK SMILES IDX 4 1 11 2 9 3 3 4 7 5 5 6 2 7 1 8 6 10 12 12 8 14 10 16
REMARK H PARENT 1 9 6 11 12 13 8 15 10 17
ROOT
ATOM      1  O   UNL     1       0.593  -5.103   5.745  1.00  0.00    -0.342 OA
ATOM      2  C   UNL     1      -1.264  -6.406   6.602  1.00  0.00     0.177 C 
ATOM      3  C   UNL     1      -2.249  -5.363   6.072  1.00  0.00     0.179 C 
ATOM      4  C   UNL     1       0.092  -5.765   6.908  1.00  0.00     0.178 C 
ATOM      5  C   UNL     1      -1.629  -4.539   4.944  1.00  0.00     0.201 C 
ATOM      6  C   UNL     1      -0.242  -4.026   5.327  1.00  0.00     0.279 C 
ENDROOT
BRANCH   4   7
ATOM      7  C   UNL     1       1.126  -6.805   7.327  1.00  0.00     0.191 C 
BRANCH   7   8
ATOM      8  O   UNL     1       1.097  -6.927   8.738  1.00  0.00    -0.394 OA
ATOM      9  H   UNL     1       0.383  -7.546   8.965  1.00  0.00     0.210 HD
ENDBRANCH   7   8
ENDBRANCH   4   7
BRANCH   6  10
ATOM     10  O   UNL     1       0.326  -3.393   4.181  1.00  0.00    -0.366 OA
ATOM     11  H   UNL     1       1.191  -3.025   4.428  1.00  0.00     0.213 HD
ENDBRANCH   6  10
BRANCH   2  12
ATOM     12  O   UNL     1      -1.789  -6.988   7.791  1.00  0.00    -0.387 OA
ATOM     13  H   UNL     1      -2.368  -7.726   7.533  1.00  0.00     0.211 HD
ENDBRANCH   2  12
BRANCH   5  14
ATOM     14  O   UNL     1      -2.462  -3.413   4.667  1.00  0.00    -0.385 OA
ATOM     15  H   UNL     1      -2.825  -3.093   5.510  1.00  0.00     0.211 HD
ENDBRANCH   5  14
BRANCH   3  16
ATOM     16  O   UNL     1      -3.399  -6.052   5.581  1.00  0.00    -0.387 OA
ATOM     17  H   UNL     1      -3.092  -6.697   4.919  1.00  0.00     0.211 HD
ENDBRANCH   3  16
TORSDOF 6
ENDMDL
MODEL 4
REMARK VINA RESULT:    -5.770      1.077      3.750
REMARK INTER + INTRA:          -7.184
REMARK INTER:                  -6.958
REMARK INTRA:                  -0.227
REMARK UNBOUND:                -0.234
REMARK SMILES OC[C@H]1O[C@@H](O)[C@H](O)[C@@H](O)[C@@H]1O
REMARK SMILES IDX 4 1 11 2 9 3 3 4 7 5 5 6 2 7 1 8 6 10 12 12 8 14 10 16
REMARK H PARENT 1 9 6 11 12 13 8 15 10 17
ROOT
ATOM      1  O   UNL     1      -0.491  -4.445   5.771  1.00  0.00    -0.342 OA
ATOM      2  C   UNL     1      -0.842  -6.270   7.327  1.00  0.00     0.177 C 
ATOM      3  C   UNL     1       0.663  -6.540   7.362  1.00  0.00     0.179 C 
ATOM      4  C   UNL     1      -1.249  -5.635   5.996  1.00  0.00     0.178 C 
ATOM      5  C   UNL     1       1.456  -5.303   6.941  1.00  0.00     0.201 C 
ATOM      6  C   UNL     1       0.906  -4.702   5.648  1.00  0.00     0.279 C 
ENDROOT
BRANCH   4   7
ATOM      7  C   UNL     1      -2.725  -5.250   5.983  1.00  0.00     0.191 C 
BRANCH   7   8
ATOM      8  O   UNL     1      -3.460  -6.303   5.387  1.00  0.00    -0.394 OA
ATOM      9  H   UNL     1      -4.323  -6.349   5.832  1.00  0.00     0.210 HD
ENDBRANCH   7   8
ENDBRANCH   4   7
BRANCH   6  10
ATOM     10  O   UNL     1       1.601  -3.481   5.400  1.00  0.00    -0.366 OA
ATOM     11  H   UNL     1       1.000  -2.740   5.589  1.00  0.00     0.213 HD
ENDBRANCH   6  10
BRANCH   2  12
ATOM     12  O   UNL     1      -1.544  -7.498   7.498  1.00  0.00    -0.387 OA
ATOM     13  H   UNL     1      -1.348  -7.835   8.389  1.00  0.00     0.211 HD
ENDBRANCH   2  12
BRANCH   5  14
ATOM     14  O   UNL     1       2.819  -5.667   6.721  1.00  0.00    -0.385 OA
ATOM     15  H   UNL     1       3.248  -4.946   6.229  1.00  0.00     0.211 HD
ENDBRANCH   5  14
BRANCH   3  16
ATOM     16  O   UNL     1       1.016  -6.900   8.698  1.00  0.00    -0.387 OA
ATOM     17  H   UNL     1       0.912  -7.864   8.777  1.00  0.00     0.211 HD
ENDBRANCH   3  16
TORSDOF 6
ENDMDL
MODEL 5
REMARK VINA RESULT:    -5.671      1.318      3.008
REMARK INTER + INTRA:          -7.065
REMARK INTER:                  -6.830
REMARK INTRA:                  -0.234
REMARK UNBOUND:                -0.234
REMARK SMILES OC[C@H]1O[C@@H](O)[C@H](O)[C@@H](O)[C@@H]1O
REMARK SMILES IDX 4 1 11 2 9 3 3 4 7 5 5 6 2 7 1 8 6 10 12 12 8 14 10 16
REMARK H PARENT 1 9 6 11 12 13 8 15 10 17
ROOT
ATOM      1  O   UNL     1      -0.068  -6.109   7.016  1.00  0.00    -0.342 OA
ATOM      2  C   UNL     1      -0.238  -4.160   5.584  1.00  0.00     0.177 C 
ATOM      3  C   UNL     1      -1.643  -4.588   5.156  1.00  0.00     0.179 C 
ATOM      4  C   UNL     1       0.600  -5.375   5.988  1.00  0.00     0.178 C 
ATOM      5  C   UNL     1      -2.274  -5.522   6.188  1.00  0.00     0.201 C 
ATOM      6  C   UNL     1      -1.316  -6.645   6.582  1.00  0.00     0.279 C 
ENDROOT
BRANCH   4   7
ATOM      7  C   UNL     1       1.965  -4.964   6.529  1.00  0.00     0.191 C 
BRANCH   7   8
ATOM      8  O   UNL     1       1.945  -3.573   6.794  1.00  0.00    -0.394 OA
ATOM      9  H   UNL     1       1.197  -3.191   6.305  1.00  0.00     0.210 HD
ENDBRANCH   7   8
ENDBRANCH   4   7
BRANCH   6  10
ATOM     10  O   UNL     1      -1.917  -7.385   7.643  1.00  0.00    -0.366 OA
ATOM     11  H   UNL     1      -2.852  -7.127   7.709  1.00  0.00     0.213 HD
ENDBRANCH   6  10
BRANCH   2  12
ATOM     12  O   UNL     1       0.399  -3.487   4.502  1.00  0.00    -0.387 OA
ATOM     13  H   UNL     1       0.586  -4.142   3.809  1.00  0.00     0.211 HD
ENDBRANCH   2  12
BRANCH   5  14
ATOM     14  O   UNL     1      -3.451  -6.112   5.634  1.00  0.00    -0.385 OA
ATOM     15  H   UNL     1      -3.431  -7.065   5.830  1.00  0.00     0.211 HD
ENDBRANCH   5  14
BRANCH   3  16
ATOM     16  O   UNL     1      -2.442  -3.411   5.027  1.00  0.00    -0.387 OA
ATOM     17  H   UNL     1      -1.907  -2.744   4.564  1.00  0.00     0.211 HD
ENDBRANCH   3  16
TORSDOF 6
ENDMDL
MODEL 6
REMARK VINA RESULT:    -5.426      1.394      3.751
REMARK INTER + INTRA:          -6.770
REMARK INTER:                  -6.546
REMARK INTRA:                  -0.224
REMARK UNBOUND:                -0.234
REMARK SMILES OC[C@H]1O[C@@H](O)[C@H](O)[C@@H](O)[C@@H]1O
REMARK SMILES IDX 4 1 11 2 9 3 3 4 7 5 5 6 2 7 1 8 6 10 12 12 8 14 10 16
REMARK H PARENT 1 9 6 11 12 13 8 15 10 17
ROOT
ATOM      1  O   UNL     1      -0.272  -5.727   5.434  1.00  0.00    -0.342 OA
ATOM      2  C   UNL     1       0.692  -6.020   7.638  1.00  0.00     0.177 C 
ATOM      3  C   UNL     1       2.096  -5.858   7.054  1.00  0.00     0.179 C 
ATOM      4  C   UNL     1      -0.274  -6.570   6.587  1.00  0.00     0.178 C 
ATOM      5  C   UNL     1       2.058  -5.107   5.723  1.00  0.00     0.201 C 
ATOM      6  C   UNL     1       0.998  -5.687   4.787  1.00  0.00     0.279 C 
ENDROOT
BRANCH   4   7
ATOM      7  C   UNL     1      -1.705  -6.631   7.111  1.00  0.00     0.191 C 
BRANCH   7   8
ATOM      8  O   UNL     1      -1.950  -7.937   7.602  1.00  0.00    -0.394 OA
ATOM      9  H   UNL     1      -2.847  -7.947   7.977  1.00  0.00     0.210 HD
ENDBRANCH   7   8
ENDBRANCH   4   7
BRANCH   6  10
ATOM     10  O   UNL     1       0.924  -4.851   3.633  1.00  0.00    -0.366 OA
ATOM     11  H   UNL     1       0.292  -4.134   3.811  1.00  0.00     0.213 HD
ENDBRANCH   6  10
BRANCH   2  12
ATOM     12  O   UNL     1       0.744  -6.915   8.746  1.00  0.00    -0.387 OA
ATOM     13  H   UNL     1      -0.156  -7.001   9.104  1.00  0.00     0.211 HD
ENDBRANCH   2  12
BRANCH   5  14
ATOM     14  O   UNL     1       3.329  -5.215   5.082  1.00  0.00    -0.385 OA
ATOM     15  H   UNL     1       3.518  -4.368   4.644  1.00  0.00     0.211 HD
ENDBRANCH   5  14
BRANCH   3  16
ATOM     16  O   UNL     1       2.883  -5.123   7.992  1.00  0.00    -0.387 OA
ATOM     17  H   UNL     1       2.925  -5.648   8.811  1.00  0.00     0.211 HD
ENDBRANCH   3  16
TORSDOF 6
ENDMDL
MODEL 7
REMARK VINA RESULT:    -5.346      1.911      3.503
REMARK INTER + INTRA:          -6.674
REMARK INTER:                  -6.422
REMARK INTRA:                  -0.252
REMARK UNBOUND:                -0.234
REMARK SMILES OC[C@H]1O[C@@H](O)[C@H](O)[C@@H](O)[C@@H]1O
REMARK SMILES IDX 4 1 11 2 9 3 3 4 7 5 5 6 2 7 1 8 6 10 12 12 8 14 10 16
REMARK H PARENT 1 9 6 11 12 13 8 15 10 17
ROOT
ATOM      1  O   UNL     1      -0.356  -5.023   6.836  1.00  0.00    -0.342 OA
ATOM      2  C   UNL     1       1.749  -6.221   6.923  1.00  0.00     0.177 C 
ATOM      3  C   UNL     1       2.257  -5.432   5.715  1.00  0.00     0.179 C 
ATOM      4  C   UNL     1       0.223  -6.327   6.900  1.00  0.00     0.178 C 
ATOM      5  C   UNL     1       1.497  -4.115   5.557  1.00  0.00     0.201 C 
ATOM      6  C   UNL     1      -0.013  -4.330   5.638  1.00  0.00     0.279 C 
ENDROOT
BRANCH   4   7
ATOM      7  C   UNL     1      -0.314  -7.008   8.154  1.00  0.00     0.191 C 
BRANCH   7   8
ATOM      8  O   UNL     1       0.674  -6.936   9.166  1.00  0.00    -0.394 OA
ATOM      9  H   UNL     1       1.214  -7.742   9.109  1.00  0.00     0.210 HD
ENDBRANCH   7   8
ENDBRANCH   4   7
BRANCH   6  10
ATOM     10  O   UNL     1      -0.642  -3.049   5.625  1.00  0.00    -0.366 OA
ATOM     11  H   UNL     1      -0.107  -2.437   6.159  1.00  0.00     0.213 HD
ENDBRANCH   6  10
BRANCH   2  12
ATOM     12  O   UNL     1       2.314  -7.529   6.902  1.00  0.00    -0.387 OA
ATOM     13  H   UNL     1       2.653  -7.724   7.792  1.00  0.00     0.211 HD
ENDBRANCH   2  12
BRANCH   5  14
ATOM     14  O   UNL     1       1.800  -3.544   4.283  1.00  0.00    -0.385 OA
ATOM     15  H   UNL     1       2.768  -3.501   4.195  1.00  0.00     0.211 HD
ENDBRANCH   5  14
BRANCH   3  16
ATOM     16  O   UNL     1       3.644  -5.159   5.917  1.00  0.00    -0.387 OA
ATOM     17  H   UNL     1       4.139  -5.645   5.234  1.00  0.00     0.211 HD
ENDBRANCH   3  16
TORSDOF 6
ENDMDL
MODEL 8
REMARK VINA RESULT:    -5.241      1.913      3.261
REMARK INTER + INTRA:          -6.547
REMARK INTER:                  -6.499
REMARK INTRA:                  -0.048
REMARK UNBOUND:                -0.234
REMARK SMILES OC[C@H]1O[C@@H](O)[C@H](O)[C@@H](O)[C@@H]1O
REMARK SMILES IDX 4 1 11 2 9 3 3 4 7 5 5 6 2 7 1 8 6 10 12 12 8 14 10 16
REMARK H PARENT 1 9 6 11 12 13 8 15 10 17
ROOT
ATOM      1  O   UNL     1       0.072  -5.322   7.229  1.00  0.00    -0.342 OA
ATOM      2  C   UNL     1       1.092  -5.296   5.030  1.00  0.00     0.177 C 
ATOM      3  C   UNL     1      -0.092  -4.499   4.482  1.00  0.00     0.179 C 
ATOM      4  C   UNL     1       0.665  -6.149   6.227  1.00  0.00     0.178 C 
ATOM      5  C   UNL     1      -0.827  -3.761   5.601  1.00  0.00     0.201 C 
ATOM      6  C   UNL     1      -1.123  -4.688   6.779  1.00  0.00     0.279 C 
ENDROOT
BRANCH   4   7
ATOM      7  C   UNL     1       1.853  -6.864   6.863  1.00  0.00     0.191 C 
BRANCH   7   8
ATOM      8  O   UNL     1       1.652  -6.913   8.264  1.00  0.00    -0.394 OA
ATOM      9  H   UNL     1       1.089  -7.682   8.454  1.00  0.00     0.210 HD
ENDBRANCH   7   8
ENDBRANCH   4   7
BRANCH   6  10
ATOM     10  O   UNL     1      -1.677  -3.900   7.831  1.00  0.00    -0.366 OA
ATOM     11  H   UNL     1      -0.967  -3.358   8.218  1.00  0.00     0.213 HD
ENDBRANCH   6  10
BRANCH   2  12
ATOM     12  O   UNL     1       1.604  -6.144   4.006  1.00  0.00    -0.387 OA
ATOM     13  H   UNL     1       1.156  -5.913   3.174  1.00  0.00     0.211 HD
ENDBRANCH   2  12
BRANCH   5  14
ATOM     14  O   UNL     1      -2.068  -3.260   5.102  1.00  0.00    -0.385 OA
ATOM     15  H   UNL     1      -1.887  -2.772   4.280  1.00  0.00     0.211 HD
ENDBRANCH   5  14
BRANCH   3  16
ATOM     16  O   UNL     1       0.412  -3.553   3.539  1.00  0.00    -0.387 OA
ATOM     17  H   UNL     1       0.651  -2.748   4.032  1.00  0.00     0.211 HD
ENDBRANCH   3  16
TORSDOF 6
ENDMDL
MODEL 9
REMARK VINA RESULT:    -5.214      1.713      3.820
REMARK INTER + INTRA:          -6.515
REMARK INTER:                  -6.282
REMARK INTRA:                  -0.233
REMARK UNBOUND:                -0.234
REMARK SMILES OC[C@H]1O[C@@H](O)[C@H](O)[C@@H](O)[C@@H]1O
REMARK SMILES IDX 4 1 11 2 9 3 3 4 7 5 5 6 2 7 1 8 6 10 12 12 8 14 10 16
REMARK H PARENT 1 9 6 11 12 13 8 15 10 17
ROOT
ATOM      1  O   UNL     1       0.182  -5.764   5.375  1.00  0.00    -0.342 OA
ATOM      2  C   UNL     1       2.516  -5.302   5.839  1.00  0.00     0.177 C 
ATOM      3  C   UNL     1       2.328  -5.767   7.284  1.00  0.00     0.179 C 
ATOM      4  C   UNL     1       1.201  -4.769   5.265  1.00  0.00     0.178 C 
ATOM      5  C   UNL     1       1.119  -6.692   7.414  1.00  0.00     0.201 C 
ATOM      6  C   UNL     1      -0.112  -6.098   6.729  1.00  0.00     0.279 C 
ENDROOT
BRANCH   4   7
ATOM      7  C   UNL     1       1.335  -4.408   3.789  1.00  0.00     0.191 C 
BRANCH   7   8
ATOM      8  O   UNL     1       1.659  -3.033   3.689  1.00  0.00    -0.394 OA
ATOM      9  H   UNL     1       2.267  -2.928   2.938  1.00  0.00     0.210 HD
ENDBRANCH   7   8
ENDBRANCH   4   7
BRANCH   6  10
ATOM     10  O   UNL     1      -1.152  -7.074   6.770  1.00  0.00    -0.366 OA
ATOM     11  H   UNL     1      -0.960  -7.700   7.489  1.00  0.00     0.213 HD
ENDBRANCH   6  10
BRANCH   2  12
ATOM     12  O   UNL     1       3.499  -4.272   5.799  1.00  0.00    -0.387 OA
ATOM     13  H   UNL     1       3.080  -3.470   5.444  1.00  0.00     0.211 HD
ENDBRANCH   2  12
BRANCH   5  14
ATOM     14  O   UNL     1       0.814  -6.880   8.796  1.00  0.00    -0.385 OA
ATOM     15  H   UNL     1       1.135  -7.760   9.058  1.00  0.00     0.211 HD
ENDBRANCH   5  14
BRANCH   3  16
ATOM     16  O   UNL     1       3.508  -6.468   7.678  1.00  0.00    -0.387 OA
ATOM     17  H   UNL     1       3.305  -6.937   8.507  1.00  0.00     0.211 HD
ENDBRANCH   3  16
TORSDOF 6
ENDMDL
