MODEL 1
REMARK VINA RESULT:    -4.757      0.000      0.000
REMARK INTER + INTRA:          -5.983
REMARK INTER:                  -5.730
REMARK INTRA:                  -0.252
REMARK UNBOUND:                -0.252
REMARK SMILES OC[C@H]1O[C@@H](O)[C@H](O)[C@@H](O)[C@@H]1O
REMARK SMILES IDX 4 1 11 2 9 3 3 4 7 5 5 6 2 7 1 8 6 10 12 12 8 14 10 16
REMARK H PARENT 1 9 6 11 12 13 8 15 10 17
ROOT
ATOM      1  O   UNL     1      -2.782 -11.790  12.704  1.00  0.00    -0.342 OA
ATOM      2  C   UNL     1      -4.224 -12.591  14.481  1.00  0.00     0.177 C 
ATOM      3  C   UNL     1      -3.564 -11.622  15.463  1.00  0.00     0.179 C 
ATOM      4  C   UNL     1      -3.255 -12.969  13.358  1.00  0.00     0.178 C 
ATOM      5  C   UNL     1      -2.904 -10.455  14.729  1.00  0.00     0.201 C 
ATOM      6  C   UNL     1      -2.032 -10.946  13.574  1.00  0.00     0.279 C 
ENDROOT
BRANCH   4   7
ATOM      7  C   UNL     1      -3.927 -13.842  12.303  1.00  0.00     0.191 C 
BRANCH   7   8
ATOM      8  O   UNL     1      -5.330 -13.681  12.411  1.00  0.00    -0.394 OA
ATOM      9  H   UNL     1      -5.630 -13.179  11.635  1.00  0.00     0.210 HD
ENDBRANCH   7   8
ENDBRANCH   4   7
BRANCH   6  10
ATOM     10  O   UNL     1      -1.569  -9.803  12.856  1.00  0.00    -0.366 OA
ATOM     11  H   UNL     1      -2.288  -9.150  12.817  1.00  0.00     0.213 HD
ENDBRANCH   6  10
BRANCH   2  12
ATOM     12  O   UNL     1      -4.621 -13.769  15.177  1.00  0.00    -0.387 OA
ATOM     13  H   UNL     1      -3.816 -14.238  15.456  1.00  0.00     0.211 HD
ENDBRANCH   2  12
BRANCH   5  14
ATOM     14  O   UNL     1      -2.076  -9.731  15.639  1.00  0.00    -0.385 OA
ATOM     15  H   UNL     1      -2.641  -9.116  16.137  1.00  0.00     0.211 HD
ENDBRANCH   5  14
BRANCH   3  16
ATOM     16  O   UNL     1      -4.577 -11.122  16.337  1.00  0.00    -0.387 OA
ATOM     17  H   UNL     1      -5.301 -11.773  16.346  1.00  0.00     0.211 HD
ENDBRANCH   3  16
TORSDOF 6
ENDMDL
MODEL 2
REMARK VINA RESULT:    -4.685      1.980      2.943
REMARK INTER + INTRA:          -5.896
REMARK INTER:                  -5.657
REMARK INTRA:                  -0.238
REMARK UNBOUND:                -0.252
REMARK SMILES OC[C@H]1O[C@@H](O)[C@H](O)[C@@H](O)[C@@H]1O
REMARK SMILES IDX 4 1 11 2 9 3 3 4 7 5 5 6 2 7 1 8 6 10 12 12 8 14 10 16
REMARK H PARENT 1 9 6 11 12 13 8 15 10 17
ROOT
ATOM      1  O   UNL     1      -1.183 -11.294  14.681  1.00  0.00    -0.342 OA
ATOM      2  C   UNL     1      -2.629 -12.880  13.555  1.00  0.00     0.177 C 
ATOM      3  C   UNL     1      -3.842 -12.311  14.293  1.00  0.00     0.179 C 
ATOM      4  C   UNL     1      -1.352 -12.678  14.372  1.00  0.00     0.178 C 
ATOM      5  C   UNL     1      -3.575 -10.886  14.776  1.00  0.00     0.201 C 
ATOM      6  C   UNL     1      -2.233 -10.785  15.501  1.00  0.00     0.279 C 
ENDROOT
BRANCH   4   7
ATOM      7  C   UNL     1      -0.113 -13.133  13.605  1.00  0.00     0.191 C 
BRANCH   7   8
ATOM      8  O   UNL     1       0.141 -14.489  13.923  1.00  0.00    -0.394 OA
ATOM      9  H   UNL     1      -0.644 -15.003  13.668  1.00  0.00     0.210 HD
ENDBRANCH   7   8
ENDBRANCH   4   7
BRANCH   6  10
ATOM     10  O   UNL     1      -1.993  -9.409  15.793  1.00  0.00    -0.366 OA
ATOM     11  H   UNL     1      -2.689  -8.878  15.371  1.00  0.00     0.213 HD
ENDBRANCH   6  10
BRANCH   2  12
ATOM     12  O   UNL     1      -2.828 -14.273  13.326  1.00  0.00    -0.387 OA
ATOM     13  H   UNL     1      -3.390 -14.370  12.538  1.00  0.00     0.211 HD
ENDBRANCH   2  12
BRANCH   5  14
ATOM     14  O   UNL     1      -4.604 -10.494  15.685  1.00  0.00    -0.385 OA
ATOM     15  H   UNL     1      -4.590  -9.524  15.757  1.00  0.00     0.211 HD
ENDBRANCH   5  14
BRANCH   3  16
ATOM     16  O   UNL     1      -4.947 -12.308  13.389  1.00  0.00    -0.387 OA
ATOM     17  H   UNL     1      -5.649 -11.764  13.789  1.00  0.00     0.211 HD
ENDBRANCH   3  16
TORSDOF 6
ENDMDL
MODEL 3
REMARK VINA RESULT:    -4.681      1.417      2.952
REMARK INTER + INTRA:          -5.891
REMARK INTER:                  -5.636
REMARK INTRA:                  -0.256
REMARK UNBOUND:                -0.252
REMARK SMILES OC[C@H]1O[C@@H](O)[C@H](O)[C@@H](O)[C@@H]1O
REMARK SMILES IDX 4 1 11 2 9 3 3 4 7 5 5 6 2 7 1 8 6 10 12 12 8 14 10 16
REMARK H PARENT 1 9 6 11 12 13 8 15 10 17
ROOT
ATOM      1  O   UNL     1      -1.638 -10.292  13.638  1.00  0.00    -0.342 OA
ATOM      2  C   UNL     1      -2.981 -11.986  12.540  1.00  0.00     0.177 C 
ATOM      3  C   UNL     1      -3.639 -12.340  13.874  1.00  0.00     0.179 C 
ATOM      4  C   UNL     1      -1.577 -11.418  12.760  1.00  0.00     0.178 C 
ATOM      5  C   UNL     1      -3.535 -11.182  14.866  1.00  0.00     0.201 C 
ATOM      6  C   UNL     1      -2.108 -10.638  14.938  1.00  0.00     0.279 C 
ENDROOT
BRANCH   4   7
ATOM      7  C   UNL     1      -0.946 -10.950  11.453  1.00  0.00     0.191 C 
BRANCH   7   8
ATOM      8  O   UNL     1      -1.980 -10.683  10.523  1.00  0.00    -0.394 OA
ATOM      9  H   UNL     1      -1.657  -9.999   9.912  1.00  0.00     0.210 HD
ENDBRANCH   7   8
ENDBRANCH   4   7
BRANCH   6  10
ATOM     10  O   UNL     1      -2.121  -9.478  15.770  1.00  0.00    -0.366 OA
ATOM     11  H   UNL     1      -2.132  -8.690  15.200  1.00  0.00     0.213 HD
ENDBRANCH   6  10
BRANCH   2  12
ATOM     12  O   UNL     1      -2.894 -13.157  11.732  1.00  0.00    -0.387 OA
ATOM     13  H   UNL     1      -1.952 -13.359  11.597  1.00  0.00     0.211 HD
ENDBRANCH   2  12
BRANCH   5  14
ATOM     14  O   UNL     1      -3.906 -11.638  16.167  1.00  0.00    -0.385 OA
ATOM     15  H   UNL     1      -4.257 -12.541  16.080  1.00  0.00     0.211 HD
ENDBRANCH   5  14
BRANCH   3  16
ATOM     16  O   UNL     1      -5.015 -12.629  13.624  1.00  0.00    -0.387 OA
ATOM     17  H   UNL     1      -5.159 -12.553  12.664  1.00  0.00     0.211 HD
ENDBRANCH   3  16
TORSDOF 6
ENDMDL
MODEL 4
REMARK VINA RESULT:    -4.601      1.163      3.323
REMARK INTER + INTRA:          -5.795
REMARK INTER:                  -5.548
REMARK INTRA:                  -0.247
REMARK UNBOUND:                -0.252
REMARK SMILES OC[C@H]1O[C@@H](O)[C@H](O)[C@@H](O)[C@@H]1O
REMARK SMILES IDX 4 1 11 2 9 3 3 4 7 5 5 6 2 7 1 8 6 10 12 12 8 14 10 16
REMARK H PARENT 1 9 6 11 12 13 8 15 10 17
ROOT
ATOM      1  O   UNL     1      -3.212 -12.939  13.363  1.00  0.00    -0.342 OA
ATOM      2  C   UNL     1      -1.954 -10.874  13.547  1.00  0.00     0.177 C 
ATOM      3  C   UNL     1      -2.856 -10.418  14.695  1.00  0.00     0.179 C 
ATOM      4  C   UNL     1      -2.702 -11.833  12.617  1.00  0.00     0.178 C 
ATOM      5  C   UNL     1      -3.538 -11.609  15.369  1.00  0.00     0.201 C 
ATOM      6  C   UNL     1      -4.173 -12.543  14.339  1.00  0.00     0.279 C 
ENDROOT
BRANCH   4   7
ATOM      7  C   UNL     1      -1.789 -12.392  11.530  1.00  0.00     0.191 C 
BRANCH   7   8
ATOM      8  O   UNL     1      -1.748 -11.470  10.457  1.00  0.00    -0.394 OA
ATOM      9  H   UNL     1      -1.189 -11.853   9.760  1.00  0.00     0.210 HD
ENDBRANCH   7   8
ENDBRANCH   4   7
BRANCH   6  10
ATOM     10  O   UNL     1      -4.660 -13.692  15.030  1.00  0.00    -0.366 OA
ATOM     11  H   UNL     1      -5.376 -13.414  15.626  1.00  0.00     0.213 HD
ENDBRANCH   6  10
BRANCH   2  12
ATOM     12  O   UNL     1      -1.525  -9.736  12.804  1.00  0.00    -0.387 OA
ATOM     13  H   UNL     1      -0.648  -9.475  13.136  1.00  0.00     0.211 HD
ENDBRANCH   2  12
BRANCH   5  14
ATOM     14  O   UNL     1      -4.567 -11.135  16.238  1.00  0.00    -0.385 OA
ATOM     15  H   UNL     1      -4.153 -10.872  17.079  1.00  0.00     0.211 HD
ENDBRANCH   5  14
BRANCH   3  16
ATOM     16  O   UNL     1      -2.044  -9.732  15.648  1.00  0.00    -0.387 OA
ATOM     17  H   UNL     1      -2.640  -9.226  16.228  1.00  0.00     0.211 HD
ENDBRANCH   3  16
TORSDOF 6
ENDMDL
MODEL 5
REMARK VINA RESULT:    -4.539      2.646      3.792
REMARK INTER + INTRA:          -5.720
REMARK INTER:                  -5.475
REMARK INTRA:                  -0.245
REMARK UNBOUND:                -0.252
REMARK SMILES OC[C@H]1O[C@@H](O)[C@H](O)[C@@H](O)[C@@H]1O
REMARK SMILES IDX 4 1 11 2 9 3 3 4 7 5 5 6 2 7 1 8 6 10 12 12 8 14 10 16
REMARK H PARENT 1 9 6 11 12 13 8 15 10 17
ROOT
ATOM      1  O   UNL     1      -4.508 -12.224   9.753  1.00  0.00    -0.342 OA
ATOM      2  C   UNL     1      -4.437 -12.738  12.121  1.00  0.00     0.177 C 
ATOM      3  C   UNL     1      -2.917 -12.894  12.050  1.00  0.00     0.179 C 
ATOM      4  C   UNL     1      -5.080 -13.051  10.769  1.00  0.00     0.178 C 
ATOM      5  C   UNL     1      -2.341 -12.147  10.847  1.00  0.00     0.201 C 
ATOM      6  C   UNL     1      -3.116 -12.468   9.569  1.00  0.00     0.279 C 
ENDROOT
BRANCH   4   7
ATOM      7  C   UNL     1      -6.582 -12.789  10.784  1.00  0.00     0.191 C 
BRANCH   7   8
ATOM      8  O   UNL     1      -6.886 -11.970  11.898  1.00  0.00    -0.394 OA
ATOM      9  H   UNL     1      -6.498 -11.094  11.734  1.00  0.00     0.210 HD
ENDBRANCH   7   8
ENDBRANCH   4   7
BRANCH   6  10
ATOM     10  O   UNL     1      -2.614 -11.632   8.528  1.00  0.00    -0.366 OA
ATOM     11  H   UNL     1      -1.783 -11.227   8.830  1.00  0.00     0.213 HD
ENDBRANCH   6  10
BRANCH   2  12
ATOM     12  O   UNL     1      -4.955 -13.627  13.107  1.00  0.00    -0.387 OA
ATOM     13  H   UNL     1      -5.205 -13.100  13.885  1.00  0.00     0.211 HD
ENDBRANCH   2  12
BRANCH   5  14
ATOM     14  O   UNL     1      -0.981 -12.537  10.655  1.00  0.00    -0.385 OA
ATOM     15  H   UNL     1      -0.575 -12.655  11.531  1.00  0.00     0.211 HD
ENDBRANCH   5  14
BRANCH   3  16
ATOM     16  O   UNL     1      -2.361 -12.360  13.252  1.00  0.00    -0.387 OA
ATOM     17  H   UNL     1      -3.075 -12.325  13.912  1.00  0.00     0.211 HD
ENDBRANCH   3  16
TORSDOF 6
ENDMDL
MODEL 6
REMARK VINA RESULT:    -4.518      2.060      3.831
REMARK INTER + INTRA:          -5.695
REMARK INTER:                  -5.657
REMARK INTRA:                  -0.038
REMARK UNBOUND:                -0.252
REMARK SMILES OC[C@H]1O[C@@H](O)[C@H](O)[C@@H](O)[C@@H]1O
REMARK SMILES IDX 4 1 11 2 9 3 3 4 7 5 5 6 2 7 1 8 6 10 12 12 8 14 10 16
REMARK H PARENT 1 9 6 11 12 13 8 15 10 17
ROOT
ATOM      1  O   UNL     1      -2.107 -13.709  14.374  1.00  0.00    -0.342 OA
ATOM      2  C   UNL     1      -2.327 -11.499  15.347  1.00  0.00     0.177 C 
ATOM      3  C   UNL     1      -3.637 -11.287  14.587  1.00  0.00     0.179 C 
ATOM      4  C   UNL     1      -1.418 -12.478  14.600  1.00  0.00     0.178 C 
ATOM      5  C   UNL     1      -4.271 -12.621  14.194  1.00  0.00     0.201 C 
ATOM      6  C   UNL     1      -3.250 -13.550  13.537  1.00  0.00     0.279 C 
ENDROOT
BRANCH   4   7
ATOM      7  C   UNL     1      -0.156 -12.796  15.395  1.00  0.00     0.191 C 
BRANCH   7   8
ATOM      8  O   UNL     1       0.715 -13.554  14.575  1.00  0.00    -0.394 OA
ATOM      9  H   UNL     1       0.534 -14.494  14.745  1.00  0.00     0.210 HD
ENDBRANCH   7   8
ENDBRANCH   4   7
BRANCH   6  10
ATOM     10  O   UNL     1      -3.876 -14.816  13.331  1.00  0.00    -0.366 OA
ATOM     11  H   UNL     1      -3.368 -15.493  13.810  1.00  0.00     0.213 HD
ENDBRANCH   6  10
BRANCH   2  12
ATOM     12  O   UNL     1      -1.657 -10.250  15.490  1.00  0.00    -0.387 OA
ATOM     13  H   UNL     1      -0.718 -10.431  15.667  1.00  0.00     0.211 HD
ENDBRANCH   2  12
BRANCH   5  14
ATOM     14  O   UNL     1      -5.327 -12.387  13.263  1.00  0.00    -0.385 OA
ATOM     15  H   UNL     1      -5.980 -11.805  13.688  1.00  0.00     0.211 HD
ENDBRANCH   5  14
BRANCH   3  16
ATOM     16  O   UNL     1      -4.530 -10.568  15.439  1.00  0.00    -0.387 OA
ATOM     17  H   UNL     1      -4.796  -9.760  14.966  1.00  0.00     0.211 HD
ENDBRANCH   3  16
TORSDOF 6
ENDMDL
MODEL 7
REMARK VINA RESULT:    -4.328      2.153      3.569
REMARK INTER + INTRA:          -5.466
REMARK INTER:                  -5.241
REMARK INTRA:                  -0.224
REMARK UNBOUND:                -0.252
REMARK SMILES OC[C@H]1O[C@@H](O)[C@H](O)[C@@H](O)[C@@H]1O
REMARK SMILES IDX 4 1 11 2 9 3 3 4 7 5 5 6 2 7 1 8 6 10 12 12 8 14 10 16
REMARK H PARENT 1 9 6 11 12 13 8 15 10 17
ROOT
ATOM      1  O   UNL     1      -4.559 -13.668  14.945  1.00  0.00    -0.342 OA
ATOM      2  C   UNL     1      -2.404 -13.316  15.998  1.00  0.00     0.177 C 
ATOM      3  C   UNL     1      -1.959 -12.451  14.818  1.00  0.00     0.179 C 
ATOM      4  C   UNL     1      -3.455 -14.337  15.558  1.00  0.00     0.178 C 
ATOM      5  C   UNL     1      -3.162 -11.888  14.062  1.00  0.00     0.201 C 
ATOM      6  C   UNL     1      -4.186 -12.980  13.753  1.00  0.00     0.279 C 
ENDROOT
BRANCH   4   7
ATOM      7  C   UNL     1      -3.999 -15.133  16.740  1.00  0.00     0.191 C 
BRANCH   7   8
ATOM      8  O   UNL     1      -3.552 -14.523  17.938  1.00  0.00    -0.394 OA
ATOM      9  H   UNL     1      -2.584 -14.610  17.969  1.00  0.00     0.210 HD
ENDBRANCH   7   8
ENDBRANCH   4   7
BRANCH   6  10
ATOM     10  O   UNL     1      -5.334 -12.357  13.178  1.00  0.00    -0.366 OA
ATOM     11  H   UNL     1      -5.514 -12.774  12.318  1.00  0.00     0.213 HD
ENDBRANCH   6  10
BRANCH   2  12
ATOM     12  O   UNL     1      -1.274 -14.002  16.531  1.00  0.00    -0.387 OA
ATOM     13  H   UNL     1      -0.662 -13.338  16.892  1.00  0.00     0.211 HD
ENDBRANCH   2  12
BRANCH   5  14
ATOM     14  O   UNL     1      -2.723 -11.325  12.825  1.00  0.00    -0.385 OA
ATOM     15  H   UNL     1      -3.220 -10.502  12.676  1.00  0.00     0.211 HD
ENDBRANCH   5  14
BRANCH   3  16
ATOM     16  O   UNL     1      -1.174 -11.375  15.331  1.00  0.00    -0.387 OA
ATOM     17  H   UNL     1      -0.964 -11.583  16.258  1.00  0.00     0.211 HD
ENDBRANCH   3  16
TORSDOF 6
ENDMDL
MODEL 8
REMARK VINA RESULT:    -4.301      2.995      4.571
REMARK INTER + INTRA:          -5.433
REMARK INTER:                  -5.176
REMARK INTRA:                  -0.256
REMARK UNBOUND:                -0.252
REMARK SMILES OC[C@H]1O[C@@H](O)[C@H](O)[C@@H](O)[C@@H]1O
REMARK SMILES IDX 4 1 11 2 9 3 3 4 7 5 5 6 2 7 1 8 6 10 12 12 8 14 10 16
REMARK H PARENT 1 9 6 11 12 13 8 15 10 17
ROOT
ATOM      1  O   UNL     1       0.653 -12.688  12.218  1.00  0.00    -0.342 OA
ATOM      2  C   UNL     1      -0.855 -10.850  11.745  1.00  0.00     0.177 C 
ATOM      3  C   UNL     1      -1.667 -11.184  12.998  1.00  0.00     0.179 C 
ATOM      4  C   UNL     1      -0.159 -12.098  11.201  1.00  0.00     0.178 C 
ATOM      5  C   UNL     1      -0.831 -11.976  14.003  1.00  0.00     0.201 C 
ATOM      6  C   UNL     1      -0.112 -13.144  13.331  1.00  0.00     0.279 C 
ENDROOT
BRANCH   4   7
ATOM      7  C   UNL     1       0.750 -11.768  10.020  1.00  0.00     0.191 C 
BRANCH   7   8
ATOM      8  O   UNL     1       1.155 -10.415  10.129  1.00  0.00    -0.394 OA
ATOM      9  H   UNL     1       1.804 -10.359  10.850  1.00  0.00     0.210 HD
ENDBRANCH   7   8
ENDBRANCH   4   7
BRANCH   6  10
ATOM     10  O   UNL     1       0.753 -13.743  14.296  1.00  0.00    -0.366 OA
ATOM     11  H   UNL     1       0.221 -14.318  14.872  1.00  0.00     0.213 HD
ENDBRANCH   6  10
BRANCH   2  12
ATOM     12  O   UNL     1      -1.725 -10.322  10.748  1.00  0.00    -0.387 OA
ATOM     13  H   UNL     1      -1.869  -9.380  10.943  1.00  0.00     0.211 HD
ENDBRANCH   2  12
BRANCH   5  14
ATOM     14  O   UNL     1      -1.685 -12.501  15.019  1.00  0.00    -0.385 OA
ATOM     15  H   UNL     1      -1.559 -11.969  15.824  1.00  0.00     0.211 HD
ENDBRANCH   5  14
BRANCH   3  16
ATOM     16  O   UNL     1      -2.088  -9.956  13.592  1.00  0.00    -0.387 OA
ATOM     17  H   UNL     1      -3.057  -9.910  13.512  1.00  0.00     0.211 HD
ENDBRANCH   3  16
TORSDOF 6
ENDMDL
MODEL 9
REMARK VINA RESULT:    -4.277      3.667      5.831
REMARK INTER + INTRA:          -5.404
REMARK INTER:                  -5.154
REMARK INTRA:                  -0.250
REMARK UNBOUND:                -0.252
REMARK SMILES OC[C@H]1O[C@@H](O)[C@H](O)[C@@H](O)[C@@H]1O
REMARK SMILES IDX 4 1 11 2 9 3 3 4 7 5 5 6 2 7 1 8 6 10 12 12 8 14 10 16
REMARK H PARENT 1 9 6 11 12 13 8 15 10 17
ROOT
ATOM      1  O   UNL     1      -1.052 -12.443  11.906  1.00  0.00    -0.342 OA
ATOM      2  C   UNL     1      -0.554 -12.363   9.535  1.00  0.00     0.177 C 
ATOM      3  C   UNL     1      -2.038 -12.547   9.210  1.00  0.00     0.179 C 
ATOM      4  C   UNL     1      -0.213 -12.991  10.888  1.00  0.00     0.178 C 
ATOM      5  C   UNL     1      -2.918 -12.122  10.385  1.00  0.00     0.201 C 
ATOM      6  C   UNL     1      -2.431 -12.738  11.696  1.00  0.00     0.279 C 
ENDROOT
BRANCH   4   7
ATOM      7  C   UNL     1       1.234 -12.719  11.287  1.00  0.00     0.191 C 
BRANCH   7   8
ATOM      8  O   UNL     1       1.714 -11.626  10.526  1.00  0.00    -0.394 OA
ATOM      9  H   UNL     1       0.967 -11.273  10.013  1.00  0.00     0.210 HD
ENDBRANCH   7   8
ENDBRANCH   4   7
BRANCH   6  10
ATOM     10  O   UNL     1      -3.209 -12.186  12.757  1.00  0.00    -0.366 OA
ATOM     11  H   UNL     1      -2.854 -11.307  12.975  1.00  0.00     0.213 HD
ENDBRANCH   6  10
BRANCH   2  12
ATOM     12  O   UNL     1       0.230 -12.979   8.518  1.00  0.00    -0.387 OA
ATOM     13  H   UNL     1       1.099 -12.543   8.503  1.00  0.00     0.211 HD
ENDBRANCH   2  12
BRANCH   5  14
ATOM     14  O   UNL     1      -4.257 -12.559  10.155  1.00  0.00    -0.385 OA
ATOM     15  H   UNL     1      -4.220 -13.442   9.748  1.00  0.00     0.211 HD
ENDBRANCH   5  14
BRANCH   3  16
ATOM     16  O   UNL     1      -2.343 -11.741   8.071  1.00  0.00    -0.387 OA
ATOM     17  H   UNL     1      -2.789 -12.312   7.421  1.00  0.00     0.211 HD
ENDBRANCH   3  16
TORSDOF 6
ENDMDL
