MODEL 1
REMARK VINA RESULT:    -5.977      0.000      0.000
REMARK INTER + INTRA:          -7.405
REMARK INTER:                  -7.200
REMARK INTRA:                  -0.204
REMARK UNBOUND:                -0.204
REMARK SMILES OC[C@H]1O[C@@H](O)[C@H](O)[C@@H](O)[C@@H]1O
REMARK SMILES IDX 4 1 11 2 9 3 3 4 7 5 5 6 2 7 1 8 6 10 12 12 8 14 10 16
REMARK H PARENT 1 9 6 11 12 13 8 15 10 17
ROOT
ATOM      1  O   UNL     1      -4.120   9.770  15.891  1.00  0.00    -0.342 OA
ATOM      2  C   UNL     1      -1.715   9.472  15.946  1.00  0.00     0.177 C 
ATOM      3  C   UNL     1      -1.894   8.071  16.532  1.00  0.00     0.179 C 
ATOM      4  C   UNL     1      -2.896  10.371  16.317  1.00  0.00     0.178 C 
ATOM      5  C   UNL     1      -3.282   7.514  16.218  1.00  0.00     0.201 C 
ATOM      6  C   UNL     1      -4.376   8.529  16.546  1.00  0.00     0.279 C 
ENDROOT
BRANCH   4   7
ATOM      7  C   UNL     1      -2.797  11.738  15.648  1.00  0.00     0.191 C 
BRANCH   7   8
ATOM      8  O   UNL     1      -1.720  12.449  16.231  1.00  0.00    -0.394 OA
ATOM      9  H   UNL     1      -1.053  11.798  16.506  1.00  0.00     0.210 HD
ENDBRANCH   7   8
ENDBRANCH   4   7
BRANCH   6  10
ATOM     10  O   UNL     1      -5.621   7.996  16.097  1.00  0.00    -0.366 OA
ATOM     11  H   UNL     1      -6.331   8.353  16.657  1.00  0.00     0.213 HD
ENDBRANCH   6  10
BRANCH   2  12
ATOM     12  O   UNL     1      -0.511  10.043  16.450  1.00  0.00    -0.387 OA
ATOM     13  H   UNL     1      -0.104   9.400  17.056  1.00  0.00     0.211 HD
ENDBRANCH   2  12
BRANCH   5  14
ATOM     14  O   UNL     1      -3.510   6.342  17.002  1.00  0.00    -0.385 OA
ATOM     15  H   UNL     1      -4.410   6.394  17.367  1.00  0.00     0.211 HD
ENDBRANCH   5  14
BRANCH   3  16
ATOM     16  O   UNL     1      -0.900   7.222  15.957  1.00  0.00    -0.387 OA
ATOM     17  H   UNL     1      -0.037   7.504  16.309  1.00  0.00     0.211 HD
ENDBRANCH   3  16
TORSDOF 6
ENDMDL
MODEL 2
REMARK VINA RESULT:    -5.955      1.616      4.035
REMARK INTER + INTRA:          -7.377
REMARK INTER:                  -7.122
REMARK INTRA:                  -0.255
REMARK UNBOUND:                -0.204
REMARK SMILES OC[C@H]1O[C@@H](O)[C@H](O)[C@@H](O)[C@@H]1O
REMARK SMILES IDX 4 1 11 2 9 3 3 4 7 5 5 6 2 7 1 8 6 10 12 12 8 14 10 16
REMARK H PARENT 1 9 6 11 12 13 8 15 10 17
ROOT
ATOM      1  O   UNL     1      -4.080   6.647  16.083  1.00  0.00    -0.342 OA
ATOM      2  C   UNL     1      -1.673   6.630  16.373  1.00  0.00     0.177 C 
ATOM      3  C   UNL     1      -1.650   8.159  16.337  1.00  0.00     0.179 C 
ATOM      4  C   UNL     1      -2.865   6.086  15.582  1.00  0.00     0.178 C 
ATOM      5  C   UNL     1      -3.016   8.741  16.702  1.00  0.00     0.201 C 
ATOM      6  C   UNL     1      -4.138   8.062  15.917  1.00  0.00     0.279 C 
ENDROOT
BRANCH   4   7
ATOM      7  C   UNL     1      -2.976   4.569  15.700  1.00  0.00     0.191 C 
BRANCH   7   8
ATOM      8  O   UNL     1      -2.302   4.158  16.876  1.00  0.00    -0.394 OA
ATOM      9  H   UNL     1      -2.428   3.199  16.968  1.00  0.00     0.210 HD
ENDBRANCH   7   8
ENDBRANCH   4   7
BRANCH   6  10
ATOM     10  O   UNL     1      -5.382   8.555  16.412  1.00  0.00    -0.366 OA
ATOM     11  H   UNL     1      -5.236   9.441  16.786  1.00  0.00     0.213 HD
ENDBRANCH   6  10
BRANCH   2  12
ATOM     12  O   UNL     1      -0.465   6.128  15.808  1.00  0.00    -0.387 OA
ATOM     13  H   UNL     1      -0.550   6.158  14.840  1.00  0.00     0.211 HD
ENDBRANCH   2  12
BRANCH   5  14
ATOM     14  O   UNL     1      -3.033  10.135  16.393  1.00  0.00    -0.385 OA
ATOM     15  H   UNL     1      -3.085  10.628  17.230  1.00  0.00     0.211 HD
ENDBRANCH   5  14
BRANCH   3  16
ATOM     16  O   UNL     1      -0.675   8.608  17.278  1.00  0.00    -0.387 OA
ATOM     17  H   UNL     1      -0.138   9.291  16.839  1.00  0.00     0.211 HD
ENDBRANCH   3  16
TORSDOF 6
ENDMDL
MODEL 3
REMARK VINA RESULT:    -5.694      1.481      1.747
REMARK INTER + INTRA:          -7.064
REMARK INTER:                  -6.845
REMARK INTRA:                  -0.218
REMARK UNBOUND:                -0.204
REMARK SMILES OC[C@H]1O[C@@H](O)[C@H](O)[C@@H](O)[C@@H]1O
REMARK SMILES IDX 4 1 11 2 9 3 3 4 7 5 5 6 2 7 1 8 6 10 12 12 8 14 10 16
REMARK H PARENT 1 9 6 11 12 13 8 15 10 17
ROOT
ATOM      1  O   UNL     1      -4.369   8.124  16.254  1.00  0.00    -0.342 OA
ATOM      2  C   UNL     1      -2.397   9.232  15.382  1.00  0.00     0.177 C 
ATOM      3  C   UNL     1      -1.629   7.910  15.416  1.00  0.00     0.179 C 
ATOM      4  C   UNL     1      -3.503   9.245  16.440  1.00  0.00     0.178 C 
ATOM      5  C   UNL     1      -2.584   6.716  15.399  1.00  0.00     0.201 C 
ATOM      6  C   UNL     1      -3.697   6.880  16.434  1.00  0.00     0.279 C 
ENDROOT
BRANCH   4   7
ATOM      7  C   UNL     1      -4.356  10.507  16.348  1.00  0.00     0.191 C 
BRANCH   7   8
ATOM      8  O   UNL     1      -3.594  11.602  16.822  1.00  0.00    -0.394 OA
ATOM      9  H   UNL     1      -4.112  12.410  16.669  1.00  0.00     0.210 HD
ENDBRANCH   7   8
ENDBRANCH   4   7
BRANCH   6  10
ATOM     10  O   UNL     1      -4.620   5.805  16.260  1.00  0.00    -0.366 OA
ATOM     11  H   UNL     1      -5.295   6.079  15.616  1.00  0.00     0.213 HD
ENDBRANCH   6  10
BRANCH   2  12
ATOM     12  O   UNL     1      -1.494  10.307  15.631  1.00  0.00    -0.387 OA
ATOM     13  H   UNL     1      -1.047  10.133  16.477  1.00  0.00     0.211 HD
ENDBRANCH   2  12
BRANCH   5  14
ATOM     14  O   UNL     1      -1.859   5.526  15.706  1.00  0.00    -0.385 OA
ATOM     15  H   UNL     1      -2.463   4.914  16.161  1.00  0.00     0.211 HD
ENDBRANCH   5  14
BRANCH   3  16
ATOM     16  O   UNL     1      -0.785   7.860  14.265  1.00  0.00    -0.387 OA
ATOM     17  H   UNL     1      -0.118   7.169  14.423  1.00  0.00     0.211 HD
ENDBRANCH   3  16
TORSDOF 6
ENDMDL
MODEL 4
REMARK VINA RESULT:    -5.538      1.866      2.461
REMARK INTER + INTRA:          -6.876
REMARK INTER:                  -6.835
REMARK INTRA:                  -0.040
REMARK UNBOUND:                -0.204
REMARK SMILES OC[C@H]1O[C@@H](O)[C@H](O)[C@@H](O)[C@@H]1O
REMARK SMILES IDX 4 1 11 2 9 3 3 4 7 5 5 6 2 7 1 8 6 10 12 12 8 14 10 16
REMARK H PARENT 1 9 6 11 12 13 8 15 10 17
ROOT
ATOM      1  O   UNL     1      -2.948   8.365  17.056  1.00  0.00    -0.342 OA
ATOM      2  C   UNL     1      -2.670   7.877  14.698  1.00  0.00     0.177 C 
ATOM      3  C   UNL     1      -2.496   6.391  15.019  1.00  0.00     0.179 C 
ATOM      4  C   UNL     1      -2.230   8.742  15.881  1.00  0.00     0.178 C 
ATOM      5  C   UNL     1      -3.116   6.041  16.371  1.00  0.00     0.201 C 
ATOM      6  C   UNL     1      -2.676   7.024  17.456  1.00  0.00     0.279 C 
ENDROOT
BRANCH   4   7
ATOM      7  C   UNL     1      -2.503  10.222  15.629  1.00  0.00     0.191 C 
BRANCH   7   8
ATOM      8  O   UNL     1      -1.487  10.981  16.259  1.00  0.00    -0.394 OA
ATOM      9  H   UNL     1      -1.920  11.624  16.846  1.00  0.00     0.210 HD
ENDBRANCH   7   8
ENDBRANCH   4   7
BRANCH   6  10
ATOM     10  O   UNL     1      -3.402   6.719  18.646  1.00  0.00    -0.366 OA
ATOM     11  H   UNL     1      -3.209   5.800  18.900  1.00  0.00     0.213 HD
ENDBRANCH   6  10
BRANCH   2  12
ATOM     12  O   UNL     1      -1.887   8.207  13.555  1.00  0.00    -0.387 OA
ATOM     13  H   UNL     1      -2.134   9.103  13.270  1.00  0.00     0.211 HD
ENDBRANCH   2  12
BRANCH   5  14
ATOM     14  O   UNL     1      -2.699   4.732  16.758  1.00  0.00    -0.385 OA
ATOM     15  H   UNL     1      -3.443   4.123  16.609  1.00  0.00     0.211 HD
ENDBRANCH   5  14
BRANCH   3  16
ATOM     16  O   UNL     1      -3.141   5.639  13.991  1.00  0.00    -0.387 OA
ATOM     17  H   UNL     1      -3.526   4.847  14.406  1.00  0.00     0.211 HD
ENDBRANCH   3  16
TORSDOF 6
ENDMDL
MODEL 5
REMARK VINA RESULT:    -5.510      1.324      4.622
REMARK INTER + INTRA:          -6.842
REMARK INTER:                  -6.603
REMARK INTRA:                  -0.239
REMARK UNBOUND:                -0.204
REMARK SMILES OC[C@H]1O[C@@H](O)[C@H](O)[C@@H](O)[C@@H]1O
REMARK SMILES IDX 4 1 11 2 9 3 3 4 7 5 5 6 2 7 1 8 6 10 12 12 8 14 10 16
REMARK H PARENT 1 9 6 11 12 13 8 15 10 17
ROOT
ATOM      1  O   UNL     1      -1.315   7.855  15.936  1.00  0.00    -0.342 OA
ATOM      2  C   UNL     1      -3.585   7.025  16.127  1.00  0.00     0.177 C 
ATOM      3  C   UNL     1      -4.055   8.399  16.605  1.00  0.00     0.179 C 
ATOM      4  C   UNL     1      -2.112   6.802  16.480  1.00  0.00     0.178 C 
ATOM      5  C   UNL     1      -3.088   9.499  16.166  1.00  0.00     0.201 C 
ATOM      6  C   UNL     1      -1.641   9.129  16.488  1.00  0.00     0.279 C 
ENDROOT
BRANCH   4   7
ATOM      7  C   UNL     1      -1.589   5.487  15.911  1.00  0.00     0.191 C 
BRANCH   7   8
ATOM      8  O   UNL     1      -2.032   4.429  16.740  1.00  0.00    -0.394 OA
ATOM      9  H   UNL     1      -2.955   4.613  16.985  1.00  0.00     0.210 HD
ENDBRANCH   7   8
ENDBRANCH   4   7
BRANCH   6  10
ATOM     10  O   UNL     1      -0.794  10.129  15.924  1.00  0.00    -0.366 OA
ATOM     11  H   UNL     1      -1.167  11.003  16.133  1.00  0.00     0.213 HD
ENDBRANCH   6  10
BRANCH   2  12
ATOM     12  O   UNL     1      -4.376   6.015  16.746  1.00  0.00    -0.387 OA
ATOM     13  H   UNL     1      -3.821   5.558  17.401  1.00  0.00     0.211 HD
ENDBRANCH   2  12
BRANCH   5  14
ATOM     14  O   UNL     1      -3.404  10.709  16.853  1.00  0.00    -0.385 OA
ATOM     15  H   UNL     1      -2.870  10.743  17.665  1.00  0.00     0.211 HD
ENDBRANCH   5  14
BRANCH   3  16
ATOM     16  O   UNL     1      -5.344   8.646  16.041  1.00  0.00    -0.387 OA
ATOM     17  H   UNL     1      -5.764   7.782  15.888  1.00  0.00     0.211 HD
ENDBRANCH   3  16
TORSDOF 6
ENDMDL
MODEL 6
REMARK VINA RESULT:    -5.340      1.029      2.828
REMARK INTER + INTRA:          -6.637
REMARK INTER:                  -6.399
REMARK INTRA:                  -0.238
REMARK UNBOUND:                -0.204
REMARK SMILES OC[C@H]1O[C@@H](O)[C@H](O)[C@@H](O)[C@@H]1O
REMARK SMILES IDX 4 1 11 2 9 3 3 4 7 5 5 6 2 7 1 8 6 10 12 12 8 14 10 16
REMARK H PARENT 1 9 6 11 12 13 8 15 10 17
ROOT
ATOM      1  O   UNL     1      -1.422   9.234  15.926  1.00  0.00    -0.342 OA
ATOM      2  C   UNL     1      -3.724   9.854  16.368  1.00  0.00     0.177 C 
ATOM      3  C   UNL     1      -4.190   8.465  15.930  1.00  0.00     0.179 C 
ATOM      4  C   UNL     1      -2.413  10.231  15.673  1.00  0.00     0.178 C 
ATOM      5  C   UNL     1      -3.058   7.443  16.037  1.00  0.00     0.201 C 
ATOM      6  C   UNL     1      -1.776   7.962  15.388  1.00  0.00     0.279 C 
ENDROOT
BRANCH   4   7
ATOM      7  C   UNL     1      -1.868  11.562  16.182  1.00  0.00     0.191 C 
BRANCH   7   8
ATOM      8  O   UNL     1      -2.363  12.598  15.352  1.00  0.00    -0.394 OA
ATOM      9  H   UNL     1      -1.803  13.380  15.492  1.00  0.00     0.210 HD
ENDBRANCH   7   8
ENDBRANCH   4   7
BRANCH   6  10
ATOM     10  O   UNL     1      -0.736   7.022  15.652  1.00  0.00    -0.366 OA
ATOM     11  H   UNL     1      -0.851   6.679  16.555  1.00  0.00     0.213 HD
ENDBRANCH   6  10
BRANCH   2  12
ATOM     12  O   UNL     1      -4.725  10.812  16.038  1.00  0.00    -0.387 OA
ATOM     13  H   UNL     1      -5.391  10.372  15.482  1.00  0.00     0.211 HD
ENDBRANCH   2  12
BRANCH   5  14
ATOM     14  O   UNL     1      -3.442   6.240  15.369  1.00  0.00    -0.385 OA
ATOM     15  H   UNL     1      -4.237   6.429  14.842  1.00  0.00     0.211 HD
ENDBRANCH   5  14
BRANCH   3  16
ATOM     16  O   UNL     1      -5.267   8.072  16.780  1.00  0.00    -0.387 OA
ATOM     17  H   UNL     1      -5.917   7.602  16.229  1.00  0.00     0.211 HD
ENDBRANCH   3  16
TORSDOF 6
ENDMDL
MODEL 7
REMARK VINA RESULT:    -5.328      2.363      5.210
REMARK INTER + INTRA:          -6.622
REMARK INTER:                  -6.432
REMARK INTRA:                  -0.190
REMARK UNBOUND:                -0.204
REMARK SMILES OC[C@H]1O[C@@H](O)[C@H](O)[C@@H](O)[C@@H]1O
REMARK SMILES IDX 4 1 11 2 9 3 3 4 7 5 5 6 2 7 1 8 6 10 12 12 8 14 10 16
REMARK H PARENT 1 9 6 11 12 13 8 15 10 17
ROOT
ATOM      1  O   UNL     1      -1.154   6.316  16.791  1.00  0.00    -0.342 OA
ATOM      2  C   UNL     1      -2.778   5.517  15.179  1.00  0.00     0.177 C 
ATOM      3  C   UNL     1      -3.432   6.900  15.142  1.00  0.00     0.179 C 
ATOM      4  C   UNL     1      -2.096   5.275  16.527  1.00  0.00     0.178 C 
ATOM      5  C   UNL     1      -2.459   7.984  15.603  1.00  0.00     0.201 C 
ATOM      6  C   UNL     1      -1.772   7.595  16.911  1.00  0.00     0.279 C 
ENDROOT
BRANCH   4   7
ATOM      7  C   UNL     1      -1.338   3.952  16.546  1.00  0.00     0.191 C 
BRANCH   7   8
ATOM      8  O   UNL     1      -2.121   2.994  17.234  1.00  0.00    -0.394 OA
ATOM      9  H   UNL     1      -1.768   2.114  17.017  1.00  0.00     0.210 HD
ENDBRANCH   7   8
ENDBRANCH   4   7
BRANCH   6  10
ATOM     10  O   UNL     1      -0.783   8.583  17.199  1.00  0.00    -0.366 OA
ATOM     11  H   UNL     1      -1.228   9.437  17.334  1.00  0.00     0.213 HD
ENDBRANCH   6  10
BRANCH   2  12
ATOM     12  O   UNL     1      -3.774   4.520  14.968  1.00  0.00    -0.387 OA
ATOM     13  H   UNL     1      -4.277   4.419  15.794  1.00  0.00     0.211 HD
ENDBRANCH   2  12
BRANCH   5  14
ATOM     14  O   UNL     1      -3.174   9.201  15.818  1.00  0.00    -0.385 OA
ATOM     15  H   UNL     1      -4.124   8.993  15.834  1.00  0.00     0.211 HD
ENDBRANCH   5  14
BRANCH   3  16
ATOM     16  O   UNL     1      -3.835   7.162  13.797  1.00  0.00    -0.387 OA
ATOM     17  H   UNL     1      -3.835   6.312  13.322  1.00  0.00     0.211 HD
ENDBRANCH   3  16
TORSDOF 6
ENDMDL
MODEL 8
REMARK VINA RESULT:    -5.232      0.942      3.642
REMARK INTER + INTRA:          -6.507
REMARK INTER:                  -6.270
REMARK INTRA:                  -0.237
REMARK UNBOUND:                -0.204
REMARK SMILES OC[C@H]1O[C@@H](O)[C@H](O)[C@@H](O)[C@@H]1O
REMARK SMILES IDX 4 1 11 2 9 3 3 4 7 5 5 6 2 7 1 8 6 10 12 12 8 14 10 16
REMARK H PARENT 1 9 6 11 12 13 8 15 10 17
ROOT
ATOM      1  O   UNL     1      -4.376   9.328  16.422  1.00  0.00    -0.342 OA
ATOM      2  C   UNL     1      -2.092   8.516  16.378  1.00  0.00     0.177 C 
ATOM      3  C   UNL     1      -1.603   9.893  15.925  1.00  0.00     0.179 C 
ATOM      4  C   UNL     1      -3.537   8.280  15.934  1.00  0.00     0.178 C 
ATOM      5  C   UNL     1      -2.605  10.985  16.299  1.00  0.00     0.201 C 
ATOM      6  C   UNL     1      -4.026  10.602  15.887  1.00  0.00     0.279 C 
ENDROOT
BRANCH   4   7
ATOM      7  C   UNL     1      -4.084   6.962  16.473  1.00  0.00     0.191 C 
BRANCH   7   8
ATOM      8  O   UNL     1      -3.530   6.735  17.756  1.00  0.00    -0.394 OA
ATOM      9  H   UNL     1      -4.235   6.874  18.411  1.00  0.00     0.210 HD
ENDBRANCH   7   8
ENDBRANCH   4   7
BRANCH   6  10
ATOM     10  O   UNL     1      -4.915  11.597  16.394  1.00  0.00    -0.366 OA
ATOM     11  H   UNL     1      -5.128  11.380  17.317  1.00  0.00     0.213 HD
ENDBRANCH   6  10
BRANCH   2  12
ATOM     12  O   UNL     1      -1.254   7.511  15.813  1.00  0.00    -0.387 OA
ATOM     13  H   UNL     1      -0.875   6.992  16.543  1.00  0.00     0.211 HD
ENDBRANCH   2  12
BRANCH   5  14
ATOM     14  O   UNL     1      -2.256  12.197  15.629  1.00  0.00    -0.385 OA
ATOM     15  H   UNL     1      -1.289  12.290  15.661  1.00  0.00     0.211 HD
ENDBRANCH   5  14
BRANCH   3  16
ATOM     16  O   UNL     1      -0.355  10.152  16.569  1.00  0.00    -0.387 OA
ATOM     17  H   UNL     1      -0.446  10.990  17.055  1.00  0.00     0.211 HD
ENDBRANCH   3  16
TORSDOF 6
ENDMDL
MODEL 9
REMARK VINA RESULT:    -5.171      1.334      4.336
REMARK INTER + INTRA:          -6.433
REMARK INTER:                  -6.378
REMARK INTRA:                  -0.056
REMARK UNBOUND:                -0.204
REMARK SMILES OC[C@H]1O[C@@H](O)[C@H](O)[C@@H](O)[C@@H]1O
REMARK SMILES IDX 4 1 11 2 9 3 3 4 7 5 5 6 2 7 1 8 6 10 12 12 8 14 10 16
REMARK H PARENT 1 9 6 11 12 13 8 15 10 17
ROOT
ATOM      1  O   UNL     1      -1.551  10.099  15.904  1.00  0.00    -0.342 OA
ATOM      2  C   UNL     1      -3.717   9.012  15.973  1.00  0.00     0.177 C 
ATOM      3  C   UNL     1      -4.358  10.307  16.475  1.00  0.00     0.179 C 
ATOM      4  C   UNL     1      -2.243   8.943  16.379  1.00  0.00     0.178 C 
ATOM      5  C   UNL     1      -3.507  11.523  16.112  1.00  0.00     0.201 C 
ATOM      6  C   UNL     1      -2.040  11.306  16.482  1.00  0.00     0.279 C 
ENDROOT
BRANCH   4   7
ATOM      7  C   UNL     1      -1.552   7.717  15.791  1.00  0.00     0.191 C 
BRANCH   7   8
ATOM      8  O   UNL     1      -1.111   8.033  14.483  1.00  0.00    -0.394 OA
ATOM      9  H   UNL     1      -0.163   7.823  14.433  1.00  0.00     0.210 HD
ENDBRANCH   7   8
ENDBRANCH   4   7
BRANCH   6  10
ATOM     10  O   UNL     1      -1.292  12.415  15.987  1.00  0.00    -0.366 OA
ATOM     11  H   UNL     1      -1.690  12.707  15.148  1.00  0.00     0.213 HD
ENDBRANCH   6  10
BRANCH   2  12
ATOM     12  O   UNL     1      -4.411   7.898  16.526  1.00  0.00    -0.387 OA
ATOM     13  H   UNL     1      -4.515   7.231  15.825  1.00  0.00     0.211 HD
ENDBRANCH   2  12
BRANCH   5  14
ATOM     14  O   UNL     1      -3.984  12.665  16.824  1.00  0.00    -0.385 OA
ATOM     15  H   UNL     1      -3.787  12.535  17.768  1.00  0.00     0.211 HD
ENDBRANCH   5  14
BRANCH   3  16
ATOM     16  O   UNL     1      -5.644  10.427  15.866  1.00  0.00    -0.387 OA
ATOM     17  H   UNL     1      -5.578  11.114  15.180  1.00  0.00     0.211 HD
ENDBRANCH   3  16
TORSDOF 6
ENDMDL
