MODEL 1
REMARK VINA RESULT:    -5.532      0.000      0.000
REMARK INTER + INTRA:          -6.723
REMARK INTER:                  -6.664
REMARK INTRA:                  -0.059
REMARK UNBOUND:                -0.059
REMARK SMILES OC[C@H]1O[C@@H](O)[C@H](O)[C@@H](O)[C@@H]1O
REMARK SMILES IDX 4 1 11 2 9 3 3 4 7 5 5 6 2 7 1 8 6 10 12 12 8 14 10 16
REMARK H PARENT 1 9 6 11 12 13 8 15 10 17
ROOT
ATOM      1  O   UNL     1       8.511  -3.940   2.432  1.00  0.00    -0.342 OA
ATOM      2  C   UNL     1       7.484  -5.415   4.059  1.00  0.00     0.177 C 
ATOM      3  C   UNL     1       6.913  -4.208   4.804  1.00  0.00     0.179 C 
ATOM      4  C   UNL     1       8.764  -5.037   3.312  1.00  0.00     0.178 C 
ATOM      5  C   UNL     1       6.817  -2.988   3.889  1.00  0.00     0.201 C 
ATOM      6  C   UNL     1       8.123  -2.758   3.129  1.00  0.00     0.279 C 
ENDROOT
BRANCH   4   7
ATOM      7  C   UNL     1       9.288  -6.194   2.467  1.00  0.00     0.191 C 
BRANCH   7   8
ATOM      8  O   UNL     1       8.523  -6.265   1.277  1.00  0.00    -0.394 OA
ATOM      9  H   UNL     1       8.473  -5.369   0.905  1.00  0.00     0.210 HD
ENDBRANCH   7   8
ENDBRANCH   4   7
BRANCH   6  10
ATOM     10  O   UNL     1       7.911  -1.698   2.198  1.00  0.00    -0.366 OA
ATOM     11  H   UNL     1       8.200  -0.865   2.607  1.00  0.00     0.213 HD
ENDBRANCH   6  10
BRANCH   2  12
ATOM     12  O   UNL     1       7.771  -6.452   4.992  1.00  0.00    -0.387 OA
ATOM     13  H   UNL     1       8.718  -6.665   4.923  1.00  0.00     0.211 HD
ENDBRANCH   2  12
BRANCH   5  14
ATOM     14  O   UNL     1       6.548  -1.827   4.675  1.00  0.00    -0.385 OA
ATOM     15  H   UNL     1       7.399  -1.447   4.954  1.00  0.00     0.211 HD
ENDBRANCH   5  14
BRANCH   3  16
ATOM     16  O   UNL     1       5.609  -4.554   5.273  1.00  0.00    -0.387 OA
ATOM     17  H   UNL     1       5.650  -5.471   5.597  1.00  0.00     0.211 HD
ENDBRANCH   3  16
TORSDOF 6
ENDMDL
MODEL 2
REMARK VINA RESULT:    -5.049      1.626      3.562
REMARK INTER + INTRA:          -6.141
REMARK INTER:                  -5.929
REMARK INTRA:                  -0.211
REMARK UNBOUND:                -0.059
REMARK SMILES OC[C@H]1O[C@@H](O)[C@H](O)[C@@H](O)[C@@H]1O
REMARK SMILES IDX 4 1 11 2 9 3 3 4 7 5 5 6 2 7 1 8 6 10 12 12 8 14 10 16
REMARK H PARENT 1 9 6 11 12 13 8 15 10 17
ROOT
ATOM      1  O   UNL     1       9.327  -3.451   4.127  1.00  0.00    -0.342 OA
ATOM      2  C   UNL     1       6.928  -3.112   4.056  1.00  0.00     0.177 C 
ATOM      3  C   UNL     1       6.702  -4.584   4.404  1.00  0.00     0.179 C 
ATOM      4  C   UNL     1       8.263  -2.923   3.333  1.00  0.00     0.178 C 
ATOM      5  C   UNL     1       7.927  -5.183   5.094  1.00  0.00     0.201 C 
ATOM      6  C   UNL     1       9.211  -4.857   4.332  1.00  0.00     0.279 C 
ENDROOT
BRANCH   4   7
ATOM      7  C   UNL     1       8.565  -1.450   3.080  1.00  0.00     0.191 C 
BRANCH   7   8
ATOM      8  O   UNL     1       8.189  -1.135   1.751  1.00  0.00    -0.394 OA
ATOM      9  H   UNL     1       9.002  -0.942   1.254  1.00  0.00     0.210 HD
ENDBRANCH   7   8
ENDBRANCH   4   7
BRANCH   6  10
ATOM     10  O   UNL     1      10.314  -5.323   5.108  1.00  0.00    -0.366 OA
ATOM     11  H   UNL     1      10.874  -4.562   5.338  1.00  0.00     0.213 HD
ENDBRANCH   6  10
BRANCH   2  12
ATOM     12  O   UNL     1       5.869  -2.659   3.217  1.00  0.00    -0.387 OA
ATOM     13  H   UNL     1       5.636  -3.382   2.611  1.00  0.00     0.211 HD
ENDBRANCH   2  12
BRANCH   5  14
ATOM     14  O   UNL     1       7.791  -6.603   5.153  1.00  0.00    -0.385 OA
ATOM     15  H   UNL     1       7.222  -6.820   5.912  1.00  0.00     0.211 HD
ENDBRANCH   5  14
BRANCH   3  16
ATOM     16  O   UNL     1       5.577  -4.664   5.279  1.00  0.00    -0.387 OA
ATOM     17  H   UNL     1       5.670  -5.481   5.800  1.00  0.00     0.211 HD
ENDBRANCH   3  16
TORSDOF 6
ENDMDL
MODEL 3
REMARK VINA RESULT:    -4.936      1.524      4.808
REMARK INTER + INTRA:          -6.005
REMARK INTER:                  -5.800
REMARK INTRA:                  -0.204
REMARK UNBOUND:                -0.059
REMARK SMILES OC[C@H]1O[C@@H](O)[C@H](O)[C@@H](O)[C@@H]1O
REMARK SMILES IDX 4 1 11 2 9 3 3 4 7 5 5 6 2 7 1 8 6 10 12 12 8 14 10 16
REMARK H PARENT 1 9 6 11 12 13 8 15 10 17
ROOT
ATOM      1  O   UNL     1       7.780  -6.564   5.015  1.00  0.00    -0.342 OA
ATOM      2  C   UNL     1       7.780  -5.272   2.964  1.00  0.00     0.177 C 
ATOM      3  C   UNL     1       8.870  -6.176   2.385  1.00  0.00     0.179 C 
ATOM      4  C   UNL     1       7.858  -5.237   4.491  1.00  0.00     0.178 C 
ATOM      5  C   UNL     1       8.890  -7.535   3.085  1.00  0.00     0.201 C 
ATOM      6  C   UNL     1       8.877  -7.378   4.605  1.00  0.00     0.279 C 
ENDROOT
BRANCH   4   7
ATOM      7  C   UNL     1       6.709  -4.436   5.097  1.00  0.00     0.191 C 
BRANCH   7   8
ATOM      8  O   UNL     1       5.526  -4.729   4.376  1.00  0.00    -0.394 OA
ATOM      9  H   UNL     1       5.788  -5.026   3.488  1.00  0.00     0.210 HD
ENDBRANCH   7   8
ENDBRANCH   4   7
BRANCH   6  10
ATOM     10  O   UNL     1       8.753  -8.678   5.180  1.00  0.00    -0.366 OA
ATOM     11  H   UNL     1       9.610  -9.131   5.106  1.00  0.00     0.213 HD
ENDBRANCH   6  10
BRANCH   2  12
ATOM     12  O   UNL     1       7.943  -3.952   2.453  1.00  0.00    -0.387 OA
ATOM     13  H   UNL     1       8.414  -3.427   3.123  1.00  0.00     0.211 HD
ENDBRANCH   2  12
BRANCH   5  14
ATOM     14  O   UNL     1      10.077  -8.238   2.718  1.00  0.00    -0.385 OA
ATOM     15  H   UNL     1      10.832  -7.796   3.143  1.00  0.00     0.211 HD
ENDBRANCH   5  14
BRANCH   3  16
ATOM     16  O   UNL     1       8.599  -6.360   0.995  1.00  0.00    -0.387 OA
ATOM     17  H   UNL     1       9.397  -6.742   0.591  1.00  0.00     0.211 HD
ENDBRANCH   3  16
TORSDOF 6
ENDMDL
MODEL 4
REMARK VINA RESULT:    -4.865      1.525      3.958
REMARK INTER + INTRA:          -5.919
REMARK INTER:                  -5.706
REMARK INTRA:                  -0.213
REMARK UNBOUND:                -0.059
REMARK SMILES OC[C@H]1O[C@@H](O)[C@H](O)[C@@H](O)[C@@H]1O
REMARK SMILES IDX 4 1 11 2 9 3 3 4 7 5 5 6 2 7 1 8 6 10 12 12 8 14 10 16
REMARK H PARENT 1 9 6 11 12 13 8 15 10 17
ROOT
ATOM      1  O   UNL     1       8.583  -4.998   2.210  1.00  0.00    -0.342 OA
ATOM      2  C   UNL     1       7.962  -5.271   4.538  1.00  0.00     0.177 C 
ATOM      3  C   UNL     1       8.382  -6.741   4.485  1.00  0.00     0.179 C 
ATOM      4  C   UNL     1       7.533  -4.779   3.154  1.00  0.00     0.178 C 
ATOM      5  C   UNL     1       9.373  -6.992   3.349  1.00  0.00     0.201 C 
ATOM      6  C   UNL     1       8.883  -6.382   2.037  1.00  0.00     0.279 C 
ENDROOT
BRANCH   4   7
ATOM      7  C   UNL     1       7.221  -3.286   3.157  1.00  0.00     0.191 C 
BRANCH   7   8
ATOM      8  O   UNL     1       5.820  -3.119   3.284  1.00  0.00    -0.394 OA
ATOM      9  H   UNL     1       5.403  -3.540   2.514  1.00  0.00     0.210 HD
ENDBRANCH   7   8
ENDBRANCH   4   7
BRANCH   6  10
ATOM     10  O   UNL     1       9.918  -6.532   1.067  1.00  0.00    -0.366 OA
ATOM     11  H   UNL     1      10.327  -5.663   0.913  1.00  0.00     0.213 HD
ENDBRANCH   6  10
BRANCH   2  12
ATOM     12  O   UNL     1       6.876  -5.124   5.448  1.00  0.00    -0.387 OA
ATOM     13  H   UNL     1       7.219  -4.712   6.260  1.00  0.00     0.211 HD
ENDBRANCH   2  12
BRANCH   5  14
ATOM     14  O   UNL     1       9.527  -8.399   3.158  1.00  0.00    -0.385 OA
ATOM     15  H   UNL     1       8.758  -8.720   2.656  1.00  0.00     0.211 HD
ENDBRANCH   5  14
BRANCH   3  16
ATOM     16  O   UNL     1       8.995  -7.070   5.733  1.00  0.00    -0.387 OA
ATOM     17  H   UNL     1       9.552  -6.315   5.991  1.00  0.00     0.211 HD
ENDBRANCH   3  16
TORSDOF 6
ENDMDL
MODEL 5
REMARK VINA RESULT:    -4.818      2.083      4.136
REMARK INTER + INTRA:          -5.863
REMARK INTER:                  -5.814
REMARK INTRA:                  -0.050
REMARK UNBOUND:                -0.059
REMARK SMILES OC[C@H]1O[C@@H](O)[C@H](O)[C@@H](O)[C@@H]1O
REMARK SMILES IDX 4 1 11 2 9 3 3 4 7 5 5 6 2 7 1 8 6 10 12 12 8 14 10 16
REMARK H PARENT 1 9 6 11 12 13 8 15 10 17
ROOT
ATOM      1  O   UNL     1       5.881  -2.188   5.095  1.00  0.00    -0.342 OA
ATOM      2  C   UNL     1       7.845  -2.288   3.678  1.00  0.00     0.177 C 
ATOM      3  C   UNL     1       7.922  -0.761   3.664  1.00  0.00     0.179 C 
ATOM      4  C   UNL     1       6.405  -2.757   3.894  1.00  0.00     0.178 C 
ATOM      5  C   UNL     1       7.197  -0.160   4.868  1.00  0.00     0.201 C 
ATOM      6  C   UNL     1       5.805  -0.766   5.038  1.00  0.00     0.279 C 
ENDROOT
BRANCH   4   7
ATOM      7  C   UNL     1       6.319  -4.275   4.028  1.00  0.00     0.191 C 
BRANCH   7   8
ATOM      8  O   UNL     1       5.510  -4.583   5.149  1.00  0.00    -0.394 OA
ATOM      9  H   UNL     1       5.960  -5.281   5.654  1.00  0.00     0.210 HD
ENDBRANCH   7   8
ENDBRANCH   4   7
BRANCH   6  10
ATOM     10  O   UNL     1       5.252  -0.264   6.254  1.00  0.00    -0.366 OA
ATOM     11  H   UNL     1       4.483   0.292   6.038  1.00  0.00     0.213 HD
ENDBRANCH   6  10
BRANCH   2  12
ATOM     12  O   UNL     1       8.325  -2.795   2.435  1.00  0.00    -0.387 OA
ATOM     13  H   UNL     1       8.822  -2.086   1.994  1.00  0.00     0.211 HD
ENDBRANCH   2  12
BRANCH   5  14
ATOM     14  O   UNL     1       7.053   1.248   4.679  1.00  0.00    -0.385 OA
ATOM     15  H   UNL     1       6.279   1.397   4.108  1.00  0.00     0.211 HD
ENDBRANCH   5  14
BRANCH   3  16
ATOM     16  O   UNL     1       9.300  -0.388   3.704  1.00  0.00    -0.387 OA
ATOM     17  H   UNL     1       9.404   0.404   3.148  1.00  0.00     0.211 HD
ENDBRANCH   3  16
TORSDOF 6
ENDMDL
MODEL 6
REMARK VINA RESULT:    -4.545      1.382      3.040
REMARK INTER + INTRA:          -5.534
REMARK INTER:                  -5.492
REMARK INTRA:                  -0.042
REMARK UNBOUND:                -0.059
REMARK SMILES OC[C@H]1O[C@@H](O)[C@H](O)[C@@H](O)[C@@H]1O
REMARK SMILES IDX 4 1 11 2 9 3 3 4 7 5 5 6 2 7 1 8 6 10 12 12 8 14 10 16
REMARK H PARENT 1 9 6 11 12 13 8 15 10 17
ROOT
ATOM      1  O   UNL     1       7.235  -5.619   4.939  1.00  0.00    -0.342 OA
ATOM      2  C   UNL     1       9.145  -4.646   3.807  1.00  0.00     0.177 C 
ATOM      3  C   UNL     1       8.279  -3.476   3.335  1.00  0.00     0.179 C 
ATOM      4  C   UNL     1       8.294  -5.899   4.022  1.00  0.00     0.178 C 
ATOM      5  C   UNL     1       7.049  -3.305   4.227  1.00  0.00     0.201 C 
ATOM      6  C   UNL     1       6.329  -4.635   4.444  1.00  0.00     0.279 C 
ENDROOT
BRANCH   4   7
ATOM      7  C   UNL     1       9.115  -7.046   4.603  1.00  0.00     0.191 C 
BRANCH   7   8
ATOM      8  O   UNL     1       8.230  -8.081   4.993  1.00  0.00    -0.394 OA
ATOM      9  H   UNL     1       7.887  -7.858   5.875  1.00  0.00     0.210 HD
ENDBRANCH   7   8
ENDBRANCH   4   7
BRANCH   6  10
ATOM     10  O   UNL     1       5.285  -4.421   5.393  1.00  0.00    -0.366 OA
ATOM     11  H   UNL     1       4.784  -5.249   5.493  1.00  0.00     0.213 HD
ENDBRANCH   6  10
BRANCH   2  12
ATOM     12  O   UNL     1      10.144  -4.916   2.828  1.00  0.00    -0.387 OA
ATOM     13  H   UNL     1       9.772  -5.543   2.184  1.00  0.00     0.211 HD
ENDBRANCH   2  12
BRANCH   5  14
ATOM     14  O   UNL     1       6.137  -2.399   3.605  1.00  0.00    -0.385 OA
ATOM     15  H   UNL     1       5.544  -2.915   3.032  1.00  0.00     0.211 HD
ENDBRANCH   5  14
BRANCH   3  16
ATOM     16  O   UNL     1       9.073  -2.290   3.387  1.00  0.00    -0.387 OA
ATOM     17  H   UNL     1       8.470  -1.543   3.550  1.00  0.00     0.211 HD
ENDBRANCH   3  16
TORSDOF 6
ENDMDL
MODEL 7
REMARK VINA RESULT:    -4.429      1.993      3.398
REMARK INTER + INTRA:          -5.394
REMARK INTER:                  -5.181
REMARK INTRA:                  -0.214
REMARK UNBOUND:                -0.059
REMARK SMILES OC[C@H]1O[C@@H](O)[C@H](O)[C@@H](O)[C@@H]1O
REMARK SMILES IDX 4 1 11 2 9 3 3 4 7 5 5 6 2 7 1 8 6 10 12 12 8 14 10 16
REMARK H PARENT 1 9 6 11 12 13 8 15 10 17
ROOT
ATOM      1  O   UNL     1       9.519  -7.190   3.260  1.00  0.00    -0.342 OA
ATOM      2  C   UNL     1       8.985  -5.947   5.271  1.00  0.00     0.177 C 
ATOM      3  C   UNL     1       8.656  -4.712   4.431  1.00  0.00     0.179 C 
ATOM      4  C   UNL     1      10.004  -6.836   4.556  1.00  0.00     0.178 C 
ATOM      5  C   UNL     1       8.313  -5.099   2.992  1.00  0.00     0.201 C 
ATOM      6  C   UNL     1       9.352  -6.057   2.410  1.00  0.00     0.279 C 
ENDROOT
BRANCH   4   7
ATOM      7  C   UNL     1      10.260  -8.131   5.321  1.00  0.00     0.191 C 
BRANCH   7   8
ATOM      8  O   UNL     1       9.318  -8.225   6.374  1.00  0.00    -0.394 OA
ATOM      9  H   UNL     1       8.751  -7.437   6.333  1.00  0.00     0.210 HD
ENDBRANCH   7   8
ENDBRANCH   4   7
BRANCH   6  10
ATOM     10  O   UNL     1       8.891  -6.480   1.128  1.00  0.00    -0.366 OA
ATOM     11  H   UNL     1       8.909  -5.717   0.526  1.00  0.00     0.213 HD
ENDBRANCH   6  10
BRANCH   2  12
ATOM     12  O   UNL     1       9.519  -5.534   6.526  1.00  0.00    -0.387 OA
ATOM     13  H   UNL     1       9.018  -5.984   7.228  1.00  0.00     0.211 HD
ENDBRANCH   2  12
BRANCH   5  14
ATOM     14  O   UNL     1       8.284  -3.924   2.181  1.00  0.00    -0.385 OA
ATOM     15  H   UNL     1       8.581  -3.175   2.725  1.00  0.00     0.211 HD
ENDBRANCH   5  14
BRANCH   3  16
ATOM     16  O   UNL     1       7.537  -4.057   5.027  1.00  0.00    -0.387 OA
ATOM     17  H   UNL     1       7.153  -3.466   4.356  1.00  0.00     0.211 HD
ENDBRANCH   3  16
TORSDOF 6
ENDMDL
MODEL 8
REMARK VINA RESULT:    -4.354      1.914      3.298
REMARK INTER + INTRA:          -5.304
REMARK INTER:                  -5.081
REMARK INTRA:                  -0.223
REMARK UNBOUND:                -0.059
REMARK SMILES OC[C@H]1O[C@@H](O)[C@H](O)[C@@H](O)[C@@H]1O
REMARK SMILES IDX 4 1 11 2 9 3 3 4 7 5 5 6 2 7 1 8 6 10 12 12 8 14 10 16
REMARK H PARENT 1 9 6 11 12 13 8 15 10 17
ROOT
ATOM      1  O   UNL     1      10.303  -5.898   4.505  1.00  0.00    -0.342 OA
ATOM      2  C   UNL     1       8.983  -5.471   2.517  1.00  0.00     0.177 C 
ATOM      3  C   UNL     1       7.716  -5.376   3.370  1.00  0.00     0.179 C 
ATOM      4  C   UNL     1      10.022  -6.373   3.187  1.00  0.00     0.178 C 
ATOM      5  C   UNL     1       8.052  -5.044   4.823  1.00  0.00     0.201 C 
ATOM      6  C   UNL     1       9.162  -5.948   5.359  1.00  0.00     0.279 C 
ENDROOT
BRANCH   4   7
ATOM      7  C   UNL     1      11.337  -6.390   2.414  1.00  0.00     0.191 C 
BRANCH   7   8
ATOM      8  O   UNL     1      11.157  -7.156   1.236  1.00  0.00    -0.394 OA
ATOM      9  H   UNL     1      11.754  -6.799   0.558  1.00  0.00     0.210 HD
ENDBRANCH   7   8
ENDBRANCH   4   7
BRANCH   6  10
ATOM     10  O   UNL     1       9.516  -5.487   6.662  1.00  0.00    -0.366 OA
ATOM     11  H   UNL     1       9.447  -4.517   6.676  1.00  0.00     0.213 HD
ENDBRANCH   6  10
BRANCH   2  12
ATOM     12  O   UNL     1       8.651  -6.003   1.238  1.00  0.00    -0.387 OA
ATOM     13  H   UNL     1       9.410  -6.523   0.923  1.00  0.00     0.211 HD
ENDBRANCH   2  12
BRANCH   5  14
ATOM     14  O   UNL     1       6.891  -5.234   5.632  1.00  0.00    -0.385 OA
ATOM     15  H   UNL     1       6.168  -4.710   5.248  1.00  0.00     0.211 HD
ENDBRANCH   5  14
BRANCH   3  16
ATOM     16  O   UNL     1       6.893  -4.344   2.824  1.00  0.00    -0.387 OA
ATOM     17  H   UNL     1       7.483  -3.686   2.417  1.00  0.00     0.211 HD
ENDBRANCH   3  16
TORSDOF 6
ENDMDL
MODEL 9
REMARK VINA RESULT:    -4.336      3.892      6.477
REMARK INTER + INTRA:          -5.282
REMARK INTER:                  -5.030
REMARK INTRA:                  -0.252
REMARK UNBOUND:                -0.059
REMARK SMILES OC[C@H]1O[C@@H](O)[C@H](O)[C@@H](O)[C@@H]1O
REMARK SMILES IDX 4 1 11 2 9 3 3 4 7 5 5 6 2 7 1 8 6 10 12 12 8 14 10 16
REMARK H PARENT 1 9 6 11 12 13 8 15 10 17
ROOT
ATOM      1  O   UNL     1       7.944   0.324   4.994  1.00  0.00    -0.342 OA
ATOM      2  C   UNL     1       9.859   1.280   3.857  1.00  0.00     0.177 C 
ATOM      3  C   UNL     1       9.683   0.287   2.707  1.00  0.00     0.179 C 
ATOM      4  C   UNL     1       9.311   0.702   5.163  1.00  0.00     0.178 C 
ATOM      5  C   UNL     1       8.252  -0.247   2.654  1.00  0.00     0.201 C 
ATOM      6  C   UNL     1       7.780  -0.714   4.030  1.00  0.00     0.279 C 
ENDROOT
BRANCH   4   7
ATOM      7  C   UNL     1       9.370   1.719   6.299  1.00  0.00     0.191 C 
BRANCH   7   8
ATOM      8  O   UNL     1       9.474   3.015   5.739  1.00  0.00    -0.394 OA
ATOM      9  H   UNL     1       8.780   3.565   6.139  1.00  0.00     0.210 HD
ENDBRANCH   7   8
ENDBRANCH   4   7
BRANCH   6  10
ATOM     10  O   UNL     1       6.400  -1.062   3.928  1.00  0.00    -0.366 OA
ATOM     11  H   UNL     1       6.335  -2.002   3.687  1.00  0.00     0.213 HD
ENDBRANCH   6  10
BRANCH   2  12
ATOM     12  O   UNL     1      11.244   1.575   4.016  1.00  0.00    -0.387 OA
ATOM     13  H   UNL     1      11.688   1.401   3.168  1.00  0.00     0.211 HD
ENDBRANCH   2  12
BRANCH   5  14
ATOM     14  O   UNL     1       8.195  -1.359   1.760  1.00  0.00    -0.385 OA
ATOM     15  H   UNL     1       8.199  -1.015   0.850  1.00  0.00     0.211 HD
ENDBRANCH   5  14
BRANCH   3  16
ATOM     16  O   UNL     1       9.983   0.966   1.488  1.00  0.00    -0.387 OA
ATOM     17  H   UNL     1      10.949   1.082   1.449  1.00  0.00     0.211 HD
ENDBRANCH   3  16
TORSDOF 6
ENDMDL
