MODEL 1
REMARK VINA RESULT:    -5.054      0.000      0.000
REMARK INTER + INTRA:          -6.343
REMARK INTER:                  -6.089
REMARK INTRA:                  -0.254
REMARK UNBOUND:                -0.254
REMARK SMILES OC[C@H]1O[C@@H](O)[C@H](O)[C@@H](O)[C@@H]1O
REMARK SMILES IDX 4 1 11 2 9 3 3 4 7 5 5 6 2 7 1 8 6 10 12 12 8 14 10 16
REMARK H PARENT 1 9 6 11 12 13 8 15 10 17
ROOT
ATOM      1  O   UNL     1      -0.335 -18.194 -28.444  1.00  0.00    -0.342 OA
ATOM      2  C   UNL     1       0.974 -19.949 -29.485  1.00  0.00     0.177 C 
ATOM      3  C   UNL     1       1.900 -18.901 -30.105  1.00  0.00     0.179 C 
ATOM      4  C   UNL     1      -0.423 -19.370 -29.251  1.00  0.00     0.178 C 
ATOM      5  C   UNL     1       1.843 -17.585 -29.330  1.00  0.00     0.201 C 
ATOM      6  C   UNL     1       0.400 -17.150 -29.078  1.00  0.00     0.279 C 
ENDROOT
BRANCH   4   7
ATOM      7  C   UNL     1      -1.330 -20.359 -28.526  1.00  0.00     0.191 C 
BRANCH   7   8
ATOM      8  O   UNL     1      -0.519 -21.303 -27.851  1.00  0.00    -0.394 OA
ATOM      9  H   UNL     1      -0.447 -21.019 -26.924  1.00  0.00     0.210 HD
ENDBRANCH   7   8
ENDBRANCH   4   7
BRANCH   6  10
ATOM     10  O   UNL     1       0.428 -16.000 -28.234  1.00  0.00    -0.366 OA
ATOM     11  H   UNL     1      -0.232 -16.118 -27.529  1.00  0.00     0.213 HD
ENDBRANCH   6  10
BRANCH   2  12
ATOM     12  O   UNL     1       0.880 -21.071 -30.359  1.00  0.00    -0.387 OA
ATOM     13  H   UNL     1       0.230 -20.858 -31.051  1.00  0.00     0.211 HD
ENDBRANCH   2  12
BRANCH   5  14
ATOM     14  O   UNL     1       2.493 -16.563 -30.085  1.00  0.00    -0.385 OA
ATOM     15  H   UNL     1       3.010 -16.016 -29.469  1.00  0.00     0.211 HD
ENDBRANCH   5  14
BRANCH   3  16
ATOM     16  O   UNL     1       3.232 -19.415 -30.074  1.00  0.00    -0.387 OA
ATOM     17  H   UNL     1       3.689 -19.088 -30.868  1.00  0.00     0.211 HD
ENDBRANCH   3  16
TORSDOF 6
ENDMDL
MODEL 2
REMARK VINA RESULT:    -4.915      7.914      9.991
REMARK INTER + INTRA:          -6.174
REMARK INTER:                  -5.943
REMARK INTRA:                  -0.231
REMARK UNBOUND:                -0.254
REMARK SMILES OC[C@H]1O[C@@H](O)[C@H](O)[C@@H](O)[C@@H]1O
REMARK SMILES IDX 4 1 11 2 9 3 3 4 7 5 5 6 2 7 1 8 6 10 12 12 8 14 10 16
REMARK H PARENT 1 9 6 11 12 13 8 15 10 17
ROOT
ATOM      1  O   UNL     1       1.431 -13.071 -36.382  1.00  0.00    -0.342 OA
ATOM      2  C   UNL     1       1.514 -10.836 -35.447  1.00  0.00     0.177 C 
ATOM      3  C   UNL     1       1.793 -11.418 -34.060  1.00  0.00     0.179 C 
ATOM      4  C   UNL     1       0.728 -11.830 -36.305  1.00  0.00     0.178 C 
ATOM      5  C   UNL     1       2.381 -12.825 -34.160  1.00  0.00     0.201 C 
ATOM      6  C   UNL     1       1.566 -13.702 -35.111  1.00  0.00     0.279 C 
ENDROOT
BRANCH   4   7
ATOM      7  C   UNL     1       0.538 -11.319 -37.730  1.00  0.00     0.191 C 
BRANCH   7   8
ATOM      8  O   UNL     1       1.701 -10.607 -38.112  1.00  0.00    -0.394 OA
ATOM      9  H   UNL     1       2.171 -10.352 -37.300  1.00  0.00     0.210 HD
ENDBRANCH   7   8
ENDBRANCH   4   7
BRANCH   6  10
ATOM     10  O   UNL     1       2.252 -14.944 -35.261  1.00  0.00    -0.366 OA
ATOM     11  H   UNL     1       1.595 -15.643 -35.419  1.00  0.00     0.213 HD
ENDBRANCH   6  10
BRANCH   2  12
ATOM     12  O   UNL     1       0.761  -9.633 -35.310  1.00  0.00    -0.387 OA
ATOM     13  H   UNL     1      -0.092  -9.760 -35.759  1.00  0.00     0.211 HD
ENDBRANCH   2  12
BRANCH   5  14
ATOM     14  O   UNL     1       2.370 -13.435 -32.869  1.00  0.00    -0.385 OA
ATOM     15  H   UNL     1       2.370 -12.727 -32.202  1.00  0.00     0.211 HD
ENDBRANCH   5  14
BRANCH   3  16
ATOM     16  O   UNL     1       2.724 -10.559 -33.401  1.00  0.00    -0.387 OA
ATOM     17  H   UNL     1       2.230  -9.784 -33.082  1.00  0.00     0.211 HD
ENDBRANCH   3  16
TORSDOF 6
ENDMDL
MODEL 3
REMARK VINA RESULT:    -4.910      7.409      9.384
REMARK INTER + INTRA:          -6.168
REMARK INTER:                  -6.119
REMARK INTRA:                  -0.050
REMARK UNBOUND:                -0.254
REMARK SMILES OC[C@H]1O[C@@H](O)[C@H](O)[C@@H](O)[C@@H]1O
REMARK SMILES IDX 4 1 11 2 9 3 3 4 7 5 5 6 2 7 1 8 6 10 12 12 8 14 10 16
REMARK H PARENT 1 9 6 11 12 13 8 15 10 17
ROOT
ATOM      1  O   UNL     1       1.970 -11.606 -35.894  1.00  0.00    -0.342 OA
ATOM      2  C   UNL     1       2.108 -13.339 -34.205  1.00  0.00     0.177 C 
ATOM      3  C   UNL     1       0.693 -13.803 -34.555  1.00  0.00     0.179 C 
ATOM      4  C   UNL     1       2.286 -11.853 -34.523  1.00  0.00     0.178 C 
ATOM      5  C   UNL     1       0.303 -13.370 -35.968  1.00  0.00     0.201 C 
ATOM      6  C   UNL     1       0.607 -11.891 -36.201  1.00  0.00     0.279 C 
ENDROOT
BRANCH   4   7
ATOM      7  C   UNL     1       3.723 -11.395 -34.292  1.00  0.00     0.191 C 
BRANCH   7   8
ATOM      8  O   UNL     1       4.194 -10.776 -35.475  1.00  0.00    -0.394 OA
ATOM      9  H   UNL     1       5.042 -11.190 -35.707  1.00  0.00     0.210 HD
ENDBRANCH   7   8
ENDBRANCH   4   7
BRANCH   6  10
ATOM     10  O   UNL     1       0.352 -11.599 -37.574  1.00  0.00    -0.366 OA
ATOM     11  H   UNL     1       0.587 -12.380 -38.105  1.00  0.00     0.213 HD
ENDBRANCH   6  10
BRANCH   2  12
ATOM     12  O   UNL     1       2.344 -13.556 -32.817  1.00  0.00    -0.387 OA
ATOM     13  H   UNL     1       1.605 -14.081 -32.465  1.00  0.00     0.211 HD
ENDBRANCH   2  12
BRANCH   5  14
ATOM     14  O   UNL     1      -1.098 -13.573 -36.156  1.00  0.00    -0.385 OA
ATOM     15  H   UNL     1      -1.330 -13.261 -37.047  1.00  0.00     0.211 HD
ENDBRANCH   5  14
BRANCH   3  16
ATOM     16  O   UNL     1       0.661 -15.228 -34.468  1.00  0.00    -0.387 OA
ATOM     17  H   UNL     1       0.003 -15.464 -33.791  1.00  0.00     0.211 HD
ENDBRANCH   3  16
TORSDOF 6
ENDMDL
MODEL 4
REMARK VINA RESULT:    -4.904      7.744      9.908
REMARK INTER + INTRA:          -6.162
REMARK INTER:                  -5.907
REMARK INTRA:                  -0.255
REMARK UNBOUND:                -0.254
REMARK SMILES OC[C@H]1O[C@@H](O)[C@H](O)[C@@H](O)[C@@H]1O
REMARK SMILES IDX 4 1 11 2 9 3 3 4 7 5 5 6 2 7 1 8 6 10 12 12 8 14 10 16
REMARK H PARENT 1 9 6 11 12 13 8 15 10 17
ROOT
ATOM      1  O   UNL     1       1.659 -11.495 -36.458  1.00  0.00    -0.342 OA
ATOM      2  C   UNL     1       2.811 -11.688 -34.333  1.00  0.00     0.177 C 
ATOM      3  C   UNL     1       1.809 -12.749 -33.877  1.00  0.00     0.179 C 
ATOM      4  C   UNL     1       2.176 -10.745 -35.357  1.00  0.00     0.178 C 
ATOM      5  C   UNL     1       1.130 -13.418 -35.072  1.00  0.00     0.201 C 
ATOM      6  C   UNL     1       0.613 -12.383 -36.070  1.00  0.00     0.279 C 
ENDROOT
BRANCH   4   7
ATOM      7  C   UNL     1       3.189  -9.750 -35.914  1.00  0.00     0.191 C 
BRANCH   7   8
ATOM      8  O   UNL     1       4.478 -10.335 -35.849  1.00  0.00    -0.394 OA
ATOM      9  H   UNL     1       5.045  -9.869 -36.485  1.00  0.00     0.210 HD
ENDBRANCH   7   8
ENDBRANCH   4   7
BRANCH   6  10
ATOM     10  O   UNL     1       0.125 -13.081 -37.215  1.00  0.00    -0.366 OA
ATOM     11  H   UNL     1      -0.322 -12.444 -37.798  1.00  0.00     0.213 HD
ENDBRANCH   6  10
BRANCH   2  12
ATOM     12  O   UNL     1       3.246 -10.935 -33.205  1.00  0.00    -0.387 OA
ATOM     13  H   UNL     1       2.997 -11.425 -32.403  1.00  0.00     0.211 HD
ENDBRANCH   2  12
BRANCH   5  14
ATOM     14  O   UNL     1       0.021 -14.192 -34.614  1.00  0.00    -0.385 OA
ATOM     15  H   UNL     1      -0.050 -14.980 -35.179  1.00  0.00     0.211 HD
ENDBRANCH   5  14
BRANCH   3  16
ATOM     16  O   UNL     1       2.518 -13.731 -33.121  1.00  0.00    -0.387 OA
ATOM     17  H   UNL     1       3.447 -13.444 -33.071  1.00  0.00     0.211 HD
ENDBRANCH   3  16
TORSDOF 6
ENDMDL
MODEL 5
REMARK VINA RESULT:    -4.699      1.278      4.519
REMARK INTER + INTRA:          -5.915
REMARK INTER:                  -5.669
REMARK INTRA:                  -0.247
REMARK UNBOUND:                -0.254
REMARK SMILES OC[C@H]1O[C@@H](O)[C@H](O)[C@@H](O)[C@@H]1O
REMARK SMILES IDX 4 1 11 2 9 3 3 4 7 5 5 6 2 7 1 8 6 10 12 12 8 14 10 16
REMARK H PARENT 1 9 6 11 12 13 8 15 10 17
ROOT
ATOM      1  O   UNL     1       1.980 -19.804 -30.312  1.00  0.00    -0.342 OA
ATOM      2  C   UNL     1       0.509 -18.708 -28.727  1.00  0.00     0.177 C 
ATOM      3  C   UNL     1      -0.651 -19.599 -29.176  1.00  0.00     0.179 C 
ATOM      4  C   UNL     1       1.525 -18.529 -29.857  1.00  0.00     0.178 C 
ATOM      5  C   UNL     1      -0.141 -20.884 -29.827  1.00  0.00     0.201 C 
ATOM      6  C   UNL     1       0.932 -20.589 -30.875  1.00  0.00     0.279 C 
ENDROOT
BRANCH   4   7
ATOM      7  C   UNL     1       2.747 -17.741 -29.397  1.00  0.00     0.191 C 
BRANCH   7   8
ATOM      8  O   UNL     1       2.464 -16.358 -29.517  1.00  0.00    -0.394 OA
ATOM      9  H   UNL     1       1.787 -16.255 -30.206  1.00  0.00     0.210 HD
ENDBRANCH   7   8
ENDBRANCH   4   7
BRANCH   6  10
ATOM     10  O   UNL     1       1.456 -21.836 -31.332  1.00  0.00    -0.366 OA
ATOM     11  H   UNL     1       1.571 -21.788 -32.296  1.00  0.00     0.213 HD
ENDBRANCH   6  10
BRANCH   2  12
ATOM     12  O   UNL     1       0.002 -17.434 -28.342  1.00  0.00    -0.387 OA
ATOM     13  H   UNL     1      -0.713 -17.577 -27.698  1.00  0.00     0.211 HD
ENDBRANCH   2  12
BRANCH   5  14
ATOM     14  O   UNL     1      -1.226 -21.550 -30.473  1.00  0.00    -0.385 OA
ATOM     15  H   UNL     1      -0.864 -22.306 -30.967  1.00  0.00     0.211 HD
ENDBRANCH   5  14
BRANCH   3  16
ATOM     16  O   UNL     1      -1.428 -19.925 -28.024  1.00  0.00    -0.387 OA
ATOM     17  H   UNL     1      -1.046 -19.445 -27.268  1.00  0.00     0.211 HD
ENDBRANCH   3  16
TORSDOF 6
ENDMDL
MODEL 6
REMARK VINA RESULT:    -4.526      7.415      8.838
REMARK INTER + INTRA:          -5.707
REMARK INTER:                  -5.496
REMARK INTRA:                  -0.211
REMARK UNBOUND:                -0.254
REMARK SMILES OC[C@H]1O[C@@H](O)[C@H](O)[C@@H](O)[C@@H]1O
REMARK SMILES IDX 4 1 11 2 9 3 3 4 7 5 5 6 2 7 1 8 6 10 12 12 8 14 10 16
REMARK H PARENT 1 9 6 11 12 13 8 15 10 17
ROOT
ATOM      1  O   UNL     1       0.340 -12.044 -35.487  1.00  0.00    -0.342 OA
ATOM      2  C   UNL     1       2.000 -12.927 -33.956  1.00  0.00     0.177 C 
ATOM      3  C   UNL     1       3.042 -11.957 -34.514  1.00  0.00     0.179 C 
ATOM      4  C   UNL     1       0.939 -13.251 -35.010  1.00  0.00     0.178 C 
ATOM      5  C   UNL     1       2.376 -10.755 -35.183  1.00  0.00     0.201 C 
ATOM      6  C   UNL     1       1.275 -11.194 -36.148  1.00  0.00     0.279 C 
ENDROOT
BRANCH   4   7
ATOM      7  C   UNL     1      -0.175 -14.124 -34.441  1.00  0.00     0.191 C 
BRANCH   7   8
ATOM      8  O   UNL     1       0.343 -15.421 -34.210  1.00  0.00    -0.394 OA
ATOM      9  H   UNL     1       0.006 -15.724 -33.350  1.00  0.00     0.210 HD
ENDBRANCH   7   8
ENDBRANCH   4   7
BRANCH   6  10
ATOM     10  O   UNL     1       0.610 -10.023 -36.620  1.00  0.00    -0.366 OA
ATOM     11  H   UNL     1       0.726  -9.316 -35.963  1.00  0.00     0.213 HD
ENDBRANCH   6  10
BRANCH   2  12
ATOM     12  O   UNL     1       2.646 -14.131 -33.551  1.00  0.00    -0.387 OA
ATOM     13  H   UNL     1       1.972 -14.831 -33.503  1.00  0.00     0.211 HD
ENDBRANCH   2  12
BRANCH   5  14
ATOM     14  O   UNL     1       3.353 -10.024 -35.924  1.00  0.00    -0.385 OA
ATOM     15  H   UNL     1       4.230 -10.241 -35.561  1.00  0.00     0.211 HD
ENDBRANCH   5  14
BRANCH   3  16
ATOM     16  O   UNL     1       3.853 -11.508 -33.428  1.00  0.00    -0.387 OA
ATOM     17  H   UNL     1       4.663 -11.125 -33.809  1.00  0.00     0.211 HD
ENDBRANCH   3  16
TORSDOF 6
ENDMDL
MODEL 7
REMARK VINA RESULT:    -4.497      9.363     10.560
REMARK INTER + INTRA:          -5.671
REMARK INTER:                  -5.429
REMARK INTRA:                  -0.242
REMARK UNBOUND:                -0.254
REMARK SMILES OC[C@H]1O[C@@H](O)[C@H](O)[C@@H](O)[C@@H]1O
REMARK SMILES IDX 4 1 11 2 9 3 3 4 7 5 5 6 2 7 1 8 6 10 12 12 8 14 10 16
REMARK H PARENT 1 9 6 11 12 13 8 15 10 17
ROOT
ATOM      1  O   UNL     1      10.474 -19.890 -23.286  1.00  0.00    -0.342 OA
ATOM      2  C   UNL     1       8.483 -19.841 -24.668  1.00  0.00     0.177 C 
ATOM      3  C   UNL     1       7.628 -19.536 -23.437  1.00  0.00     0.179 C 
ATOM      4  C   UNL     1       9.743 -20.616 -24.275  1.00  0.00     0.178 C 
ATOM      5  C   UNL     1       8.468 -18.923 -22.318  1.00  0.00     0.201 C 
ATOM      6  C   UNL     1       9.743 -19.730 -22.073  1.00  0.00     0.279 C 
ENDROOT
BRANCH   4   7
ATOM      7  C   UNL     1      10.669 -20.830 -25.468  1.00  0.00     0.191 C 
BRANCH   7   8
ATOM      8  O   UNL     1      10.182 -21.923 -26.226  1.00  0.00    -0.394 OA
ATOM      9  H   UNL     1       9.213 -21.932 -26.142  1.00  0.00     0.210 HD
ENDBRANCH   7   8
ENDBRANCH   4   7
BRANCH   6  10
ATOM     10  O   UNL     1      10.536 -19.022 -21.122  1.00  0.00    -0.366 OA
ATOM     11  H   UNL     1      11.009 -19.669 -20.571  1.00  0.00     0.213 HD
ENDBRANCH   6  10
BRANCH   2  12
ATOM     12  O   UNL     1       7.722 -20.614 -25.591  1.00  0.00    -0.387 OA
ATOM     13  H   UNL     1       7.533 -21.474 -25.178  1.00  0.00     0.211 HD
ENDBRANCH   2  12
BRANCH   5  14
ATOM     14  O   UNL     1       7.709 -18.908 -21.109  1.00  0.00    -0.385 OA
ATOM     15  H   UNL     1       6.790 -18.681 -21.334  1.00  0.00     0.211 HD
ENDBRANCH   5  14
BRANCH   3  16
ATOM     16  O   UNL     1       6.608 -18.614 -23.826  1.00  0.00    -0.387 OA
ATOM     17  H   UNL     1       6.714 -18.447 -24.779  1.00  0.00     0.211 HD
ENDBRANCH   3  16
TORSDOF 6
ENDMDL
MODEL 8
REMARK VINA RESULT:    -4.496      6.890      8.053
REMARK INTER + INTRA:          -5.670
REMARK INTER:                  -5.430
REMARK INTRA:                  -0.240
REMARK UNBOUND:                -0.254
REMARK SMILES OC[C@H]1O[C@@H](O)[C@H](O)[C@@H](O)[C@@H]1O
REMARK SMILES IDX 4 1 11 2 9 3 3 4 7 5 5 6 2 7 1 8 6 10 12 12 8 14 10 16
REMARK H PARENT 1 9 6 11 12 13 8 15 10 17
ROOT
ATOM      1  O   UNL     1      -0.722 -12.049 -35.096  1.00  0.00    -0.342 OA
ATOM      2  C   UNL     1       0.295 -14.030 -34.138  1.00  0.00     0.177 C 
ATOM      3  C   UNL     1       1.685 -13.423 -34.339  1.00  0.00     0.179 C 
ATOM      4  C   UNL     1      -0.693 -13.475 -35.166  1.00  0.00     0.178 C 
ATOM      5  C   UNL     1       1.612 -11.900 -34.443  1.00  0.00     0.201 C 
ATOM      6  C   UNL     1       0.533 -11.460 -35.431  1.00  0.00     0.279 C 
ENDROOT
BRANCH   4   7
ATOM      7  C   UNL     1      -2.112 -13.977 -34.914  1.00  0.00     0.191 C 
BRANCH   7   8
ATOM      8  O   UNL     1      -2.170 -14.524 -33.609  1.00  0.00    -0.394 OA
ATOM      9  H   UNL     1      -2.267 -13.785 -32.984  1.00  0.00     0.210 HD
ENDBRANCH   7   8
ENDBRANCH   4   7
BRANCH   6  10
ATOM     10  O   UNL     1       0.430 -10.038 -35.366  1.00  0.00    -0.366 OA
ATOM     11  H   UNL     1      -0.363  -9.763 -35.858  1.00  0.00     0.213 HD
ENDBRANCH   6  10
BRANCH   2  12
ATOM     12  O   UNL     1       0.375 -15.446 -34.277  1.00  0.00    -0.387 OA
ATOM     13  H   UNL     1       0.251 -15.841 -33.397  1.00  0.00     0.211 HD
ENDBRANCH   2  12
BRANCH   5  14
ATOM     14  O   UNL     1       2.868 -11.397 -34.899  1.00  0.00    -0.385 OA
ATOM     15  H   UNL     1       3.149 -10.692 -34.291  1.00  0.00     0.211 HD
ENDBRANCH   5  14
BRANCH   3  16
ATOM     16  O   UNL     1       2.490 -13.786 -33.217  1.00  0.00    -0.387 OA
ATOM     17  H   UNL     1       2.656 -12.976 -32.703  1.00  0.00     0.211 HD
ENDBRANCH   3  16
TORSDOF 6
ENDMDL
MODEL 9
REMARK VINA RESULT:    -4.408      9.575     11.411
REMARK INTER + INTRA:          -5.564
REMARK INTER:                  -5.321
REMARK INTRA:                  -0.243
REMARK UNBOUND:                -0.254
REMARK SMILES OC[C@H]1O[C@@H](O)[C@H](O)[C@@H](O)[C@@H]1O
REMARK SMILES IDX 4 1 11 2 9 3 3 4 7 5 5 6 2 7 1 8 6 10 12 12 8 14 10 16
REMARK H PARENT 1 9 6 11 12 13 8 15 10 17
ROOT
ATOM      1  O   UNL     1       2.044 -10.601 -37.687  1.00  0.00    -0.342 OA
ATOM      2  C   UNL     1       1.401 -10.966 -35.378  1.00  0.00     0.177 C 
ATOM      3  C   UNL     1       0.008 -11.411 -35.828  1.00  0.00     0.179 C 
ATOM      4  C   UNL     1       2.016  -9.999 -36.392  1.00  0.00     0.178 C 
ATOM      5  C   UNL     1       0.022 -11.885 -37.281  1.00  0.00     0.201 C 
ATOM      6  C   UNL     1       0.739 -10.883 -38.187  1.00  0.00     0.279 C 
ENDROOT
BRANCH   4   7
ATOM      7  C   UNL     1       3.450  -9.633 -36.023  1.00  0.00     0.191 C 
BRANCH   7   8
ATOM      8  O   UNL     1       4.053 -10.749 -35.395  1.00  0.00    -0.394 OA
ATOM      9  H   UNL     1       3.390 -11.458 -35.354  1.00  0.00     0.210 HD
ENDBRANCH   7   8
ENDBRANCH   4   7
BRANCH   6  10
ATOM     10  O   UNL     1       0.835 -11.457 -39.489  1.00  0.00    -0.366 OA
ATOM     11  H   UNL     1       1.625 -11.097 -39.928  1.00  0.00     0.213 HD
ENDBRANCH   6  10
BRANCH   2  12
ATOM     12  O   UNL     1       1.302 -10.322 -34.111  1.00  0.00    -0.387 OA
ATOM     13  H   UNL     1       1.468  -9.373 -34.243  1.00  0.00     0.211 HD
ENDBRANCH   2  12
BRANCH   5  14
ATOM     14  O   UNL     1      -1.320 -12.027 -37.746  1.00  0.00    -0.385 OA
ATOM     15  H   UNL     1      -1.580 -12.958 -37.634  1.00  0.00     0.211 HD
ENDBRANCH   5  14
BRANCH   3  16
ATOM     16  O   UNL     1      -0.407 -12.484 -34.982  1.00  0.00    -0.387 OA
ATOM     17  H   UNL     1       0.146 -12.454 -34.182  1.00  0.00     0.211 HD
ENDBRANCH   3  16
TORSDOF 6
ENDMDL
