MODEL 1
REMARK VINA RESULT:    -4.813      0.000      0.000
REMARK INTER + INTRA:          -5.755
REMARK INTER:                  -5.657
REMARK INTRA:                  -0.098
REMARK UNBOUND:                -0.098
REMARK SMILES NCCc1c[nH]c2ccc(O)cc12
REMARK SMILES IDX 3 1 4 2 10 3 12 4 9 5 13 6 8 7 7 8 5 9 6 10 11 12 2 14 1 15
REMARK H PARENT 6 11 11 13 1 16 1 17
ROOT
ATOM      1  C   UNL     1       1.460   7.313  10.780  1.00  0.00     0.053 C 
ENDROOT
BRANCH   1   2
ATOM      2  C   UNL     1       1.054   8.730  10.864  1.00  0.00    -0.021 A 
ATOM      3  C   UNL     1       0.321  10.502   7.568  1.00  0.00     0.116 A 
ATOM      4  C   UNL     1       0.688   9.418   8.375  1.00  0.00     0.056 A 
ATOM      5  C   UNL     1       0.001  11.735   8.133  1.00  0.00     0.048 A 
ATOM      6  C   UNL     1       0.733   9.586   9.773  1.00  0.00     0.006 A 
ATOM      7  C   UNL     1       0.038  11.925   9.519  1.00  0.00     0.030 A 
ATOM      8  C   UNL     1       0.408  10.833  10.311  1.00  0.00     0.046 A 
ATOM      9  C   UNL     1       0.920   9.461  12.022  1.00  0.00     0.087 A 
ATOM     10  N   UNL     1       0.529  10.727  11.679  1.00  0.00    -0.361 N 
ATOM     11  H   UNL     1       0.355  11.477  12.334  1.00  0.00     0.166 HD
BRANCH   3  12
ATOM     12  O   UNL     1       0.274  10.347   6.215  1.00  0.00    -0.508 OA
ATOM     13  H   UNL     1      -0.181   9.513   6.009  1.00  0.00     0.293 HD
ENDBRANCH   3  12
ENDBRANCH   1   2
BRANCH   1  14
ATOM     14  C   UNL     1       1.245   6.548  12.098  1.00  0.00     0.082 C 
BRANCH  14  15
ATOM     15  N   UNL     1       2.509   6.238  12.759  1.00  0.00    -0.330 NA
ATOM     16  H   UNL     1       2.482   6.583  13.719  1.00  0.00     0.118 HD
ATOM     17  H   UNL     1       3.267   6.737  12.297  1.00  0.00     0.118 HD
ENDBRANCH  14  15
ENDBRANCH   1  14
TORSDOF 4
ENDMDL
MODEL 2
REMARK VINA RESULT:    -4.694      2.411      4.448
REMARK INTER + INTRA:          -5.616
REMARK INTER:                  -5.529
REMARK INTRA:                  -0.087
REMARK UNBOUND:                -0.098
REMARK SMILES NCCc1c[nH]c2ccc(O)cc12
REMARK SMILES IDX 3 1 4 2 10 3 12 4 9 5 13 6 8 7 7 8 5 9 6 10 11 12 2 14 1 15
REMARK H PARENT 6 11 11 13 1 16 1 17
ROOT
ATOM      1  C   UNL     1       0.526  11.310   8.158  1.00  0.00     0.053 C 
ENDROOT
BRANCH   1   2
ATOM      2  C   UNL     1       0.702  11.072   9.604  1.00  0.00    -0.021 A 
ATOM      3  C   UNL     1       1.064   7.441  10.711  1.00  0.00     0.116 A 
ATOM      4  C   UNL     1       0.894   8.476   9.785  1.00  0.00     0.056 A 
ATOM      5  C   UNL     1       1.196   7.715  12.071  1.00  0.00     0.048 A 
ATOM      6  C   UNL     1       0.856   9.808  10.242  1.00  0.00     0.006 A 
ATOM      7  C   UNL     1       1.161   9.030  12.548  1.00  0.00     0.030 A 
ATOM      8  C   UNL     1       0.990  10.054  11.610  1.00  0.00     0.046 A 
ATOM      9  C   UNL     1       0.745  12.040  10.580  1.00  0.00     0.087 A 
ATOM     10  N   UNL     1       0.920  11.418  11.786  1.00  0.00    -0.361 N 
ATOM     11  H   UNL     1       0.987  11.889  12.677  1.00  0.00     0.166 HD
BRANCH   3  12
ATOM     12  O   UNL     1       1.103   6.150  10.276  1.00  0.00    -0.508 OA
ATOM     13  H   UNL     1       0.795   6.119   9.354  1.00  0.00     0.293 HD
ENDBRANCH   3  12
ENDBRANCH   1   2
BRANCH   1  14
ATOM     14  C   UNL     1      -0.758  10.672   7.596  1.00  0.00     0.082 C 
BRANCH  14  15
ATOM     15  N   UNL     1      -1.945  11.110   8.321  1.00  0.00    -0.330 NA
ATOM     16  H   UNL     1      -1.790  11.002   9.323  1.00  0.00     0.118 HD
ATOM     17  H   UNL     1      -2.731  10.506   8.087  1.00  0.00     0.118 HD
ENDBRANCH  14  15
ENDBRANCH   1  14
TORSDOF 4
ENDMDL
MODEL 3
REMARK VINA RESULT:    -4.632      8.445      9.758
REMARK INTER + INTRA:          -5.543
REMARK INTER:                  -5.532
REMARK INTRA:                  -0.011
REMARK UNBOUND:                -0.098
REMARK SMILES NCCc1c[nH]c2ccc(O)cc12
REMARK SMILES IDX 3 1 4 2 10 3 12 4 9 5 13 6 8 7 7 8 5 9 6 10 11 12 2 14 1 15
REMARK H PARENT 6 11 11 13 1 16 1 17
ROOT
ATOM      1  C   UNL     1       3.315  14.887   4.514  1.00  0.00     0.053 C 
ENDROOT
BRANCH   1   2
ATOM      2  C   UNL     1       2.520  16.130   4.466  1.00  0.00    -0.021 A 
ATOM      3  C   UNL     1       0.334  16.648   1.385  1.00  0.00     0.116 A 
ATOM      4  C   UNL     1       1.246  15.963   2.195  1.00  0.00     0.056 A 
ATOM      5  C   UNL     1      -0.185  17.880   1.779  1.00  0.00     0.048 A 
ATOM      6  C   UNL     1       1.640  16.533   3.422  1.00  0.00     0.006 A 
ATOM      7  C   UNL     1       0.191  18.465   2.993  1.00  0.00     0.030 A 
ATOM      8  C   UNL     1       1.103  17.768   3.792  1.00  0.00     0.046 A 
ATOM      9  C   UNL     1       2.501  17.111   5.430  1.00  0.00     0.087 A 
ATOM     10  N   UNL     1       1.644  18.094   5.016  1.00  0.00    -0.361 N 
ATOM     11  H   UNL     1       1.437  18.938   5.532  1.00  0.00     0.166 HD
BRANCH   3  12
ATOM     12  O   UNL     1      -0.051  16.103   0.197  1.00  0.00    -0.508 OA
ATOM     13  H   UNL     1      -0.693  16.696  -0.229  1.00  0.00     0.293 HD
ENDBRANCH   3  12
ENDBRANCH   1   2
BRANCH   1  14
ATOM     14  C   UNL     1       4.235  14.810   5.746  1.00  0.00     0.082 C 
BRANCH  14  15
ATOM     15  N   UNL     1       5.493  15.517   5.531  1.00  0.00    -0.330 NA
ATOM     16  H   UNL     1       6.270  14.919   5.808  1.00  0.00     0.118 HD
ATOM     17  H   UNL     1       5.532  16.336   6.136  1.00  0.00     0.118 HD
ENDBRANCH  14  15
ENDBRANCH   1  14
TORSDOF 4
ENDMDL
MODEL 4
REMARK VINA RESULT:    -4.450      2.407      2.978
REMARK INTER + INTRA:          -5.329
REMARK INTER:                  -5.178
REMARK INTRA:                  -0.151
REMARK UNBOUND:                -0.098
REMARK SMILES NCCc1c[nH]c2ccc(O)cc12
REMARK SMILES IDX 3 1 4 2 10 3 12 4 9 5 13 6 8 7 7 8 5 9 6 10 11 12 2 14 1 15
REMARK H PARENT 6 11 11 13 1 16 1 17
ROOT
ATOM      1  C   UNL     1       1.435  11.504  12.155  1.00  0.00     0.053 C 
ENDROOT
BRANCH   1   2
ATOM      2  C   UNL     1       1.788  11.146  10.767  1.00  0.00    -0.021 A 
ATOM      3  C   UNL     1      -1.090  10.902   8.278  1.00  0.00     0.116 A 
ATOM      4  C   UNL     1      -0.510  11.124   9.532  1.00  0.00     0.056 A 
ATOM      5  C   UNL     1      -0.304  10.560   7.179  1.00  0.00     0.048 A 
ATOM      6  C   UNL     1       0.886  10.998   9.676  1.00  0.00     0.006 A 
ATOM      7  C   UNL     1       1.084  10.430   7.298  1.00  0.00     0.030 A 
ATOM      8  C   UNL     1       1.649  10.655   8.557  1.00  0.00     0.046 A 
ATOM      9  C   UNL     1       3.056  10.893  10.299  1.00  0.00     0.087 A 
ATOM     10  N   UNL     1       2.963  10.599   8.965  1.00  0.00    -0.361 N 
ATOM     11  H   UNL     1       3.744  10.372   8.366  1.00  0.00     0.166 HD
BRANCH   3  12
ATOM     12  O   UNL     1      -2.439  11.023   8.131  1.00  0.00    -0.508 OA
ATOM     13  H   UNL     1      -2.828  10.136   8.046  1.00  0.00     0.293 HD
ENDBRANCH   3  12
ENDBRANCH   1   2
BRANCH   1  14
ATOM     14  C   UNL     1       1.437  10.293  13.107  1.00  0.00     0.082 C 
BRANCH  14  15
ATOM     15  N   UNL     1       0.359   9.359  12.800  1.00  0.00    -0.330 NA
ATOM     16  H   UNL     1       0.736   8.565  12.283  1.00  0.00     0.118 HD
ATOM     17  H   UNL     1      -0.316   9.807  12.184  1.00  0.00     0.118 HD
ENDBRANCH  14  15
ENDBRANCH   1  14
TORSDOF 4
ENDMDL
MODEL 5
REMARK VINA RESULT:    -4.438      9.078     10.553
REMARK INTER + INTRA:          -5.315
REMARK INTER:                  -5.220
REMARK INTRA:                  -0.095
REMARK UNBOUND:                -0.098
REMARK SMILES NCCc1c[nH]c2ccc(O)cc12
REMARK SMILES IDX 3 1 4 2 10 3 12 4 9 5 13 6 8 7 7 8 5 9 6 10 11 12 2 14 1 15
REMARK H PARENT 6 11 11 13 1 16 1 17
ROOT
ATOM      1  C   UNL     1       0.799  15.714   2.022  1.00  0.00     0.053 C 
ENDROOT
BRANCH   1   2
ATOM      2  C   UNL     1       1.565  16.667   2.849  1.00  0.00    -0.021 A 
ATOM      3  C   UNL     1       3.993  15.172   5.381  1.00  0.00     0.116 A 
ATOM      4  C   UNL     1       3.031  15.131   4.365  1.00  0.00     0.056 A 
ATOM      5  C   UNL     1       4.447  16.390   5.885  1.00  0.00     0.048 A 
ATOM      6  C   UNL     1       2.522  16.340   3.852  1.00  0.00     0.006 A 
ATOM      7  C   UNL     1       3.955  17.602   5.391  1.00  0.00     0.030 A 
ATOM      8  C   UNL     1       2.994  17.545   4.376  1.00  0.00     0.046 A 
ATOM      9  C   UNL     1       1.478  18.038   2.786  1.00  0.00     0.087 A 
ATOM     10  N   UNL     1       2.343  18.560   3.709  1.00  0.00    -0.361 N 
ATOM     11  H   UNL     1       2.485  19.546   3.879  1.00  0.00     0.166 HD
BRANCH   3  12
ATOM     12  O   UNL     1       4.491  14.007   5.881  1.00  0.00    -0.508 OA
ATOM     13  H   UNL     1       5.415  14.149   6.151  1.00  0.00     0.293 HD
ENDBRANCH   3  12
ENDBRANCH   1   2
BRANCH   1  14
ATOM     14  C   UNL     1      -0.571  16.264   1.585  1.00  0.00     0.082 C 
BRANCH  14  15
ATOM     15  N   UNL     1      -0.738  16.220   0.136  1.00  0.00    -0.330 NA
ATOM     16  H   UNL     1       0.179  16.227  -0.311  1.00  0.00     0.118 HD
ATOM     17  H   UNL     1      -1.216  17.062  -0.179  1.00  0.00     0.118 HD
ENDBRANCH  14  15
ENDBRANCH   1  14
TORSDOF 4
ENDMDL
MODEL 6
REMARK VINA RESULT:    -4.430      2.931      3.440
REMARK INTER + INTRA:          -5.305
REMARK INTER:                  -5.181
REMARK INTRA:                  -0.124
REMARK UNBOUND:                -0.098
REMARK SMILES NCCc1c[nH]c2ccc(O)cc12
REMARK SMILES IDX 3 1 4 2 10 3 12 4 9 5 13 6 8 7 7 8 5 9 6 10 11 12 2 14 1 15
REMARK H PARENT 6 11 11 13 1 16 1 17
ROOT
ATOM      1  C   UNL     1       0.794   9.172  10.777  1.00  0.00     0.053 C 
ENDROOT
BRANCH   1   2
ATOM      2  C   UNL     1       0.868   9.699   9.399  1.00  0.00    -0.021 A 
ATOM      3  C   UNL     1       4.131  11.387   8.381  1.00  0.00     0.116 A 
ATOM      4  C   UNL     1       3.263  10.721   9.254  1.00  0.00     0.056 A 
ATOM      5  C   UNL     1       3.737  11.696   7.081  1.00  0.00     0.048 A 
ATOM      6  C   UNL     1       1.977  10.363   8.804  1.00  0.00     0.006 A 
ATOM      7  C   UNL     1       2.465  11.351   6.612  1.00  0.00     0.030 A 
ATOM      8  C   UNL     1       1.609  10.685   7.496  1.00  0.00     0.046 A 
ATOM      9  C   UNL     1      -0.134   9.633   8.458  1.00  0.00     0.087 A 
ATOM     10  N   UNL     1       0.322  10.229   7.314  1.00  0.00    -0.361 N 
ATOM     11  H   UNL     1      -0.208  10.323   6.459  1.00  0.00     0.166 HD
BRANCH   3  12
ATOM     12  O   UNL     1       5.377  11.736   8.810  1.00  0.00    -0.508 OA
ATOM     13  H   UNL     1       6.036  11.368   8.197  1.00  0.00     0.293 HD
ENDBRANCH   3  12
ENDBRANCH   1   2
BRANCH   1  14
ATOM     14  C   UNL     1       1.685   7.935  10.995  1.00  0.00     0.082 C 
BRANCH  14  15
ATOM     15  N   UNL     1       1.200   6.778  10.251  1.00  0.00    -0.330 NA
ATOM     16  H   UNL     1       1.286   5.943  10.830  1.00  0.00     0.118 HD
ATOM     17  H   UNL     1       1.792   6.623   9.436  1.00  0.00     0.118 HD
ENDBRANCH  14  15
ENDBRANCH   1  14
TORSDOF 4
ENDMDL
MODEL 7
REMARK VINA RESULT:    -4.327      1.475      1.556
REMARK INTER + INTRA:          -5.184
REMARK INTER:                  -5.036
REMARK INTRA:                  -0.147
REMARK UNBOUND:                -0.098
REMARK SMILES NCCc1c[nH]c2ccc(O)cc12
REMARK SMILES IDX 3 1 4 2 10 3 12 4 9 5 13 6 8 7 7 8 5 9 6 10 11 12 2 14 1 15
REMARK H PARENT 6 11 11 13 1 16 1 17
ROOT
ATOM      1  C   UNL     1       3.526   9.529  10.947  1.00  0.00     0.053 C 
ENDROOT
BRANCH   1   2
ATOM      2  C   UNL     1       2.228  10.230  10.875  1.00  0.00    -0.021 A 
ATOM      3  C   UNL     1       0.474  10.246   7.490  1.00  0.00     0.116 A 
ATOM      4  C   UNL     1       1.499   9.930   8.388  1.00  0.00     0.056 A 
ATOM      5  C   UNL     1      -0.636  10.980   7.904  1.00  0.00     0.048 A 
ATOM      6  C   UNL     1       1.400  10.364   9.725  1.00  0.00     0.006 A 
ATOM      7  C   UNL     1      -0.756  11.421   9.226  1.00  0.00     0.030 A 
ATOM      8  C   UNL     1       0.277  11.098  10.112  1.00  0.00     0.046 A 
ATOM      9  C   UNL     1       1.603  10.873  11.918  1.00  0.00     0.087 A 
ATOM     10  N   UNL     1       0.426  11.393  11.449  1.00  0.00    -0.361 N 
ATOM     11  H   UNL     1      -0.237  11.918  12.002  1.00  0.00     0.166 HD
BRANCH   3  12
ATOM     12  O   UNL     1       0.562   9.828   6.196  1.00  0.00    -0.508 OA
ATOM     13  H   UNL     1       1.004  10.518   5.672  1.00  0.00     0.293 HD
ENDBRANCH   3  12
ENDBRANCH   1   2
BRANCH   1  14
ATOM     14  C   UNL     1       3.475   8.258  11.813  1.00  0.00     0.082 C 
BRANCH  14  15
ATOM     15  N   UNL     1       2.418   7.348  11.383  1.00  0.00    -0.330 NA
ATOM     16  H   UNL     1       2.133   6.764  12.169  1.00  0.00     0.118 HD
ATOM     17  H   UNL     1       2.780   6.715  10.673  1.00  0.00     0.118 HD
ENDBRANCH  14  15
ENDBRANCH   1  14
TORSDOF 4
ENDMDL
MODEL 8
REMARK VINA RESULT:    -4.198      3.692      5.478
REMARK INTER + INTRA:          -5.033
REMARK INTER:                  -4.956
REMARK INTRA:                  -0.077
REMARK UNBOUND:                -0.098
REMARK SMILES NCCc1c[nH]c2ccc(O)cc12
REMARK SMILES IDX 3 1 4 2 10 3 12 4 9 5 13 6 8 7 7 8 5 9 6 10 11 12 2 14 1 15
REMARK H PARENT 6 11 11 13 1 16 1 17
ROOT
ATOM      1  C   UNL     1       3.346  12.777   6.233  1.00  0.00     0.053 C 
ENDROOT
BRANCH   1   2
ATOM      2  C   UNL     1       3.233  11.879   7.400  1.00  0.00    -0.021 A 
ATOM      3  C   UNL     1      -0.214  10.409   8.102  1.00  0.00     0.116 A 
ATOM      4  C   UNL     1       0.719  11.184   7.403  1.00  0.00     0.056 A 
ATOM      5  C   UNL     1       0.165   9.678   9.227  1.00  0.00     0.048 A 
ATOM      6  C   UNL     1       2.054  11.220   7.850  1.00  0.00     0.006 A 
ATOM      7  C   UNL     1       1.485   9.699   9.688  1.00  0.00     0.030 A 
ATOM      8  C   UNL     1       2.406  10.479   8.980  1.00  0.00     0.046 A 
ATOM      9  C   UNL     1       4.257  11.532   8.250  1.00  0.00     0.087 A 
ATOM     10  N   UNL     1       3.749  10.686   9.199  1.00  0.00    -0.361 N 
ATOM     11  H   UNL     1       4.282  10.274   9.953  1.00  0.00     0.166 HD
BRANCH   3  12
ATOM     12  O   UNL     1      -1.507  10.368   7.674  1.00  0.00    -0.508 OA
ATOM     13  H   UNL     1      -1.730  11.219   7.261  1.00  0.00     0.293 HD
ENDBRANCH   3  12
ENDBRANCH   1   2
BRANCH   1  14
ATOM     14  C   UNL     1       4.404  13.880   6.425  1.00  0.00     0.082 C 
BRANCH  14  15
ATOM     15  N   UNL     1       4.815  14.465   5.153  1.00  0.00    -0.330 NA
ATOM     16  H   UNL     1       5.656  13.994   4.819  1.00  0.00     0.118 HD
ATOM     17  H   UNL     1       5.071  15.441   5.293  1.00  0.00     0.118 HD
ENDBRANCH  14  15
ENDBRANCH   1  14
TORSDOF 4
ENDMDL
MODEL 9
REMARK VINA RESULT:    -4.150     11.113     11.987
REMARK INTER + INTRA:          -4.977
REMARK INTER:                  -4.832
REMARK INTRA:                  -0.145
REMARK UNBOUND:                -0.098
REMARK SMILES NCCc1c[nH]c2ccc(O)cc12
REMARK SMILES IDX 3 1 4 2 10 3 12 4 9 5 13 6 8 7 7 8 5 9 6 10 11 12 2 14 1 15
REMARK H PARENT 6 11 11 13 1 16 1 17
ROOT
ATOM      1  C   UNL     1      13.343   9.832   5.648  1.00  0.00     0.053 C 
ENDROOT
BRANCH   1   2
ATOM      2  C   UNL     1      12.885   8.760   6.554  1.00  0.00    -0.021 A 
ATOM      3  C   UNL     1       9.362   9.107   7.972  1.00  0.00     0.116 A 
ATOM      4  C   UNL     1      10.468   9.494   7.206  1.00  0.00     0.056 A 
ATOM      5  C   UNL     1       9.389   7.931   8.719  1.00  0.00     0.048 A 
ATOM      6  C   UNL     1      11.617   8.679   7.197  1.00  0.00     0.006 A 
ATOM      7  C   UNL     1      10.519   7.106   8.725  1.00  0.00     0.030 A 
ATOM      8  C   UNL     1      11.616   7.506   7.955  1.00  0.00     0.046 A 
ATOM      9  C   UNL     1      13.614   7.655   6.928  1.00  0.00     0.087 A 
ATOM     10  N   UNL     1      12.841   6.905   7.772  1.00  0.00    -0.361 N 
ATOM     11  H   UNL     1      13.127   6.035   8.200  1.00  0.00     0.166 HD
BRANCH   3  12
ATOM     12  O   UNL     1       8.247   9.890   7.986  1.00  0.00    -0.508 OA
ATOM     13  H   UNL     1       8.158  10.297   8.864  1.00  0.00     0.293 HD
ENDBRANCH   3  12
ENDBRANCH   1   2
BRANCH   1  14
ATOM     14  C   UNL     1      13.543   9.350   4.200  1.00  0.00     0.082 C 
BRANCH  14  15
ATOM     15  N   UNL     1      12.272   9.177   3.504  1.00  0.00    -0.330 NA
ATOM     16  H   UNL     1      12.420   9.269   2.499  1.00  0.00     0.118 HD
ATOM     17  H   UNL     1      11.633   9.925   3.768  1.00  0.00     0.118 HD
ENDBRANCH  14  15
ENDBRANCH   1  14
TORSDOF 4
ENDMDL
