MODEL 1
REMARK VINA RESULT:    -5.936      0.000      0.000
REMARK INTER + INTRA:          -7.063
REMARK INTER:                  -6.977
REMARK INTRA:                  -0.086
REMARK UNBOUND:                -0.086
REMARK SMILES NCCc1c[nH]c2ccc(O)cc12
REMARK SMILES IDX 3 1 4 2 10 3 12 4 9 5 13 6 8 7 7 8 5 9 6 10 11 12 2 14 1 15
REMARK H PARENT 6 11 11 13 1 16 1 17
ROOT
ATOM      1  C   UNL     1       6.160   7.182   6.358  1.00  0.00     0.053 C 
ENDROOT
BRANCH   1   2
ATOM      2  C   UNL     1       5.775   7.822   7.631  1.00  0.00    -0.021 A 
ATOM      3  C   UNL     1       4.040   5.610  10.206  1.00  0.00     0.116 A 
ATOM      4  C   UNL     1       4.656   5.892   8.981  1.00  0.00     0.056 A 
ATOM      5  C   UNL     1       3.885   6.604  11.172  1.00  0.00     0.048 A 
ATOM      6  C   UNL     1       5.121   7.197   8.730  1.00  0.00     0.006 A 
ATOM      7  C   UNL     1       4.340   7.907  10.944  1.00  0.00     0.030 A 
ATOM      8  C   UNL     1       4.953   8.173   9.715  1.00  0.00     0.046 A 
ATOM      9  C   UNL     1       5.986   9.140   7.964  1.00  0.00     0.087 A 
ATOM     10  N   UNL     1       5.488   9.342   9.223  1.00  0.00    -0.361 N 
ATOM     11  H   UNL     1       5.508  10.222   9.720  1.00  0.00     0.166 HD
BRANCH   3  12
ATOM     12  O   UNL     1       3.588   4.349  10.457  1.00  0.00    -0.508 OA
ATOM     13  H   UNL     1       4.074   3.723   9.895  1.00  0.00     0.293 HD
ENDBRANCH   3  12
ENDBRANCH   1   2
BRANCH   1  14
ATOM     14  C   UNL     1       5.556   7.882   5.126  1.00  0.00     0.082 C 
BRANCH  14  15
ATOM     15  N   UNL     1       4.551   7.054   4.468  1.00  0.00    -0.330 NA
ATOM     16  H   UNL     1       5.004   6.454   3.779  1.00  0.00     0.118 HD
ATOM     17  H   UNL     1       3.906   7.648   3.950  1.00  0.00     0.118 HD
ENDBRANCH  14  15
ENDBRANCH   1  14
TORSDOF 4
ENDMDL
MODEL 2
REMARK VINA RESULT:    -5.722      2.966      4.671
REMARK INTER + INTRA:          -6.812
REMARK INTER:                  -6.711
REMARK INTRA:                  -0.101
REMARK UNBOUND:                -0.086
REMARK SMILES NCCc1c[nH]c2ccc(O)cc12
REMARK SMILES IDX 3 1 4 2 10 3 12 4 9 5 13 6 8 7 7 8 5 9 6 10 11 12 2 14 1 15
REMARK H PARENT 6 11 11 13 1 16 1 17
ROOT
ATOM      1  C   UNL     1       4.692   6.109   9.042  1.00  0.00     0.053 C 
ENDROOT
BRANCH   1   2
ATOM      2  C   UNL     1       4.446   7.445   8.464  1.00  0.00    -0.021 A 
ATOM      3  C   UNL     1       3.957   7.614   4.687  1.00  0.00     0.116 A 
ATOM      4  C   UNL     1       4.191   6.977   5.911  1.00  0.00     0.056 A 
ATOM      5  C   UNL     1       3.770   8.994   4.625  1.00  0.00     0.048 A 
ATOM      6  C   UNL     1       4.237   7.748   7.089  1.00  0.00     0.006 A 
ATOM      7  C   UNL     1       3.811   9.779   5.782  1.00  0.00     0.030 A 
ATOM      8  C   UNL     1       4.046   9.128   6.997  1.00  0.00     0.046 A 
ATOM      9  C   UNL     1       4.380   8.626   9.167  1.00  0.00     0.087 A 
ATOM     10  N   UNL     1       4.137   9.636   8.274  1.00  0.00    -0.361 N 
ATOM     11  H   UNL     1       4.040  10.612   8.516  1.00  0.00     0.166 HD
BRANCH   3  12
ATOM     12  O   UNL     1       3.911   6.875   3.543  1.00  0.00    -0.508 OA
ATOM     13  H   UNL     1       2.983   6.775   3.269  1.00  0.00     0.293 HD
ENDBRANCH   3  12
ENDBRANCH   1   2
BRANCH   1  14
ATOM     14  C   UNL     1       3.402   5.290   9.229  1.00  0.00     0.082 C 
BRANCH  14  15
ATOM     15  N   UNL     1       3.425   4.513  10.464  1.00  0.00    -0.330 NA
ATOM     16  H   UNL     1       2.497   4.522  10.887  1.00  0.00     0.118 HD
ATOM     17  H   UNL     1       4.050   4.957  11.135  1.00  0.00     0.118 HD
ENDBRANCH  14  15
ENDBRANCH   1  14
TORSDOF 4
ENDMDL
MODEL 3
REMARK VINA RESULT:    -5.509      2.983      5.174
REMARK INTER + INTRA:          -6.562
REMARK INTER:                  -6.463
REMARK INTRA:                  -0.099
REMARK UNBOUND:                -0.086
REMARK SMILES NCCc1c[nH]c2ccc(O)cc12
REMARK SMILES IDX 3 1 4 2 10 3 12 4 9 5 13 6 8 7 7 8 5 9 6 10 11 12 2 14 1 15
REMARK H PARENT 6 11 11 13 1 16 1 17
ROOT
ATOM      1  C   UNL     1       4.854   6.080   8.961  1.00  0.00     0.053 C 
ENDROOT
BRANCH   1   2
ATOM      2  C   UNL     1       4.335   6.812   7.788  1.00  0.00    -0.021 A 
ATOM      3  C   UNL     1       6.870   7.758   5.101  1.00  0.00     0.116 A 
ATOM      4  C   UNL     1       6.451   7.190   6.310  1.00  0.00     0.056 A 
ATOM      5  C   UNL     1       5.959   8.390   4.257  1.00  0.00     0.048 A 
ATOM      6  C   UNL     1       5.091   7.264   6.669  1.00  0.00     0.006 A 
ATOM      7  C   UNL     1       4.603   8.475   4.593  1.00  0.00     0.030 A 
ATOM      8  C   UNL     1       4.200   7.903   5.804  1.00  0.00     0.046 A 
ATOM      9  C   UNL     1       3.026   7.179   7.583  1.00  0.00     0.087 A 
ATOM     10  N   UNL     1       2.953   7.836   6.385  1.00  0.00    -0.361 N 
ATOM     11  H   UNL     1       2.108   8.218   5.983  1.00  0.00     0.166 HD
BRANCH   3  12
ATOM     12  O   UNL     1       8.183   7.690   4.746  1.00  0.00    -0.508 OA
ATOM     13  H   UNL     1       8.341   6.852   4.278  1.00  0.00     0.293 HD
ENDBRANCH   3  12
ENDBRANCH   1   2
BRANCH   1  14
ATOM     14  C   UNL     1       3.814   5.939  10.088  1.00  0.00     0.082 C 
BRANCH  14  15
ATOM     15  N   UNL     1       3.522   4.541  10.387  1.00  0.00    -0.330 NA
ATOM     16  H   UNL     1       2.790   4.492  11.094  1.00  0.00     0.118 HD
ATOM     17  H   UNL     1       4.345   4.100  10.795  1.00  0.00     0.118 HD
ENDBRANCH  14  15
ENDBRANCH   1  14
TORSDOF 4
ENDMDL
MODEL 4
REMARK VINA RESULT:    -5.441      2.530      3.290
REMARK INTER + INTRA:          -6.482
REMARK INTER:                  -6.401
REMARK INTRA:                  -0.081
REMARK UNBOUND:                -0.086
REMARK SMILES NCCc1c[nH]c2ccc(O)cc12
REMARK SMILES IDX 3 1 4 2 10 3 12 4 9 5 13 6 8 7 7 8 5 9 6 10 11 12 2 14 1 15
REMARK H PARENT 6 11 11 13 1 16 1 17
ROOT
ATOM      1  C   UNL     1       3.450   7.145   7.356  1.00  0.00     0.053 C 
ENDROOT
BRANCH   1   2
ATOM      2  C   UNL     1       3.770   6.619   8.698  1.00  0.00    -0.021 A 
ATOM      3  C   UNL     1       5.858   8.864  10.965  1.00  0.00     0.116 A 
ATOM      4  C   UNL     1       5.181   8.524   9.789  1.00  0.00     0.056 A 
ATOM      5  C   UNL     1       5.893   7.987  12.047  1.00  0.00     0.048 A 
ATOM      6  C   UNL     1       4.531   7.276   9.706  1.00  0.00     0.006 A 
ATOM      7  C   UNL     1       5.255   6.744  11.989  1.00  0.00     0.030 A 
ATOM      8  C   UNL     1       4.582   6.417  10.806  1.00  0.00     0.046 A 
ATOM      9  C   UNL     1       3.384   5.397   9.196  1.00  0.00     0.087 A 
ATOM     10  N   UNL     1       3.877   5.284  10.468  1.00  0.00    -0.361 N 
ATOM     11  H   UNL     1       3.745   4.485  11.073  1.00  0.00     0.166 HD
BRANCH   3  12
ATOM     12  O   UNL     1       6.488  10.069  11.052  1.00  0.00    -0.508 OA
ATOM     13  H   UNL     1       7.036  10.082  11.855  1.00  0.00     0.293 HD
ENDBRANCH   3  12
ENDBRANCH   1   2
BRANCH   1  14
ATOM     14  C   UNL     1       4.671   7.182   6.419  1.00  0.00     0.082 C 
BRANCH  14  15
ATOM     15  N   UNL     1       4.307   6.871   5.040  1.00  0.00    -0.330 NA
ATOM     16  H   UNL     1       4.800   7.503   4.409  1.00  0.00     0.118 HD
ATOM     17  H   UNL     1       3.314   7.046   4.901  1.00  0.00     0.118 HD
ENDBRANCH  14  15
ENDBRANCH   1  14
TORSDOF 4
ENDMDL
MODEL 5
REMARK VINA RESULT:    -5.440      2.176      4.209
REMARK INTER + INTRA:          -6.480
REMARK INTER:                  -6.323
REMARK INTRA:                  -0.157
REMARK UNBOUND:                -0.086
REMARK SMILES NCCc1c[nH]c2ccc(O)cc12
REMARK SMILES IDX 3 1 4 2 10 3 12 4 9 5 13 6 8 7 7 8 5 9 6 10 11 12 2 14 1 15
REMARK H PARENT 6 11 11 13 1 16 1 17
ROOT
ATOM      1  C   UNL     1       4.623   9.537  12.223  1.00  0.00     0.053 C 
ENDROOT
BRANCH   1   2
ATOM      2  C   UNL     1       4.430   9.193  10.800  1.00  0.00    -0.021 A 
ATOM      3  C   UNL     1       3.613   5.552  10.015  1.00  0.00     0.116 A 
ATOM      4  C   UNL     1       3.908   6.637  10.848  1.00  0.00     0.056 A 
ATOM      5  C   UNL     1       3.529   5.716   8.634  1.00  0.00     0.048 A 
ATOM      6  C   UNL     1       4.120   7.906  10.275  1.00  0.00     0.006 A 
ATOM      7  C   UNL     1       3.735   6.966   8.042  1.00  0.00     0.030 A 
ATOM      8  C   UNL     1       4.029   8.041   8.888  1.00  0.00     0.046 A 
ATOM      9  C   UNL     1       4.519  10.066   9.741  1.00  0.00     0.087 A 
ATOM     10  N   UNL     1       4.275   9.363   8.592  1.00  0.00    -0.361 N 
ATOM     11  H   UNL     1       4.276   9.757   7.661  1.00  0.00     0.166 HD
BRANCH   3  12
ATOM     12  O   UNL     1       3.406   4.321  10.563  1.00  0.00    -0.508 OA
ATOM     13  H   UNL     1       3.250   4.423  11.517  1.00  0.00     0.293 HD
ENDBRANCH   3  12
ENDBRANCH   1   2
BRANCH   1  14
ATOM     14  C   UNL     1       6.104   9.530  12.646  1.00  0.00     0.082 C 
BRANCH  14  15
ATOM     15  N   UNL     1       6.541   8.205  13.073  1.00  0.00    -0.330 NA
ATOM     16  H   UNL     1       7.548   8.216  13.231  1.00  0.00     0.118 HD
ATOM     17  H   UNL     1       6.375   7.534  12.326  1.00  0.00     0.118 HD
ENDBRANCH  14  15
ENDBRANCH   1  14
TORSDOF 4
ENDMDL
MODEL 6
REMARK VINA RESULT:    -5.050      3.836      4.768
REMARK INTER + INTRA:          -6.022
REMARK INTER:                  -5.948
REMARK INTRA:                  -0.075
REMARK UNBOUND:                -0.086
REMARK SMILES NCCc1c[nH]c2ccc(O)cc12
REMARK SMILES IDX 3 1 4 2 10 3 12 4 9 5 13 6 8 7 7 8 5 9 6 10 11 12 2 14 1 15
REMARK H PARENT 6 11 11 13 1 16 1 17
ROOT
ATOM      1  C   UNL     1       4.749   6.233  10.633  1.00  0.00     0.053 C 
ENDROOT
BRANCH   1   2
ATOM      2  C   UNL     1       4.597   7.626  11.098  1.00  0.00    -0.021 A 
ATOM      3  C   UNL     1       6.801   8.710  14.014  1.00  0.00     0.116 A 
ATOM      4  C   UNL     1       6.304   7.814  13.060  1.00  0.00     0.056 A 
ATOM      5  C   UNL     1       6.322  10.018  14.081  1.00  0.00     0.048 A 
ATOM      6  C   UNL     1       5.309   8.247  12.163  1.00  0.00     0.006 A 
ATOM      7  C   UNL     1       5.334  10.470  13.199  1.00  0.00     0.030 A 
ATOM      8  C   UNL     1       4.848   9.562  12.252  1.00  0.00     0.046 A 
ATOM      9  C   UNL     1       3.733   8.560  10.573  1.00  0.00     0.087 A 
ATOM     10  N   UNL     1       3.892   9.724  11.274  1.00  0.00    -0.361 N 
ATOM     11  H   UNL     1       3.382  10.579  11.102  1.00  0.00     0.166 HD
BRANCH   3  12
ATOM     12  O   UNL     1       7.764   8.299  14.885  1.00  0.00    -0.508 OA
ATOM     13  H   UNL     1       8.064   9.062  15.407  1.00  0.00     0.293 HD
ENDBRANCH   3  12
ENDBRANCH   1   2
BRANCH   1  14
ATOM     14  C   UNL     1       3.454   5.657  10.030  1.00  0.00     0.082 C 
BRANCH  14  15
ATOM     15  N   UNL     1       3.430   4.199  10.087  1.00  0.00    -0.330 NA
ATOM     16  H   UNL     1       3.516   3.896  11.057  1.00  0.00     0.118 HD
ATOM     17  H   UNL     1       4.242   3.825   9.598  1.00  0.00     0.118 HD
ENDBRANCH  14  15
ENDBRANCH   1  14
TORSDOF 4
ENDMDL
MODEL 7
REMARK VINA RESULT:    -5.038      3.037      5.173
REMARK INTER + INTRA:          -6.008
REMARK INTER:                  -5.922
REMARK INTRA:                  -0.086
REMARK UNBOUND:                -0.086
REMARK SMILES NCCc1c[nH]c2ccc(O)cc12
REMARK SMILES IDX 3 1 4 2 10 3 12 4 9 5 13 6 8 7 7 8 5 9 6 10 11 12 2 14 1 15
REMARK H PARENT 6 11 11 13 1 16 1 17
ROOT
ATOM      1  C   UNL     1       4.541   7.330  12.009  1.00  0.00     0.053 C 
ENDROOT
BRANCH   1   2
ATOM      2  C   UNL     1       4.125   6.818  10.688  1.00  0.00    -0.021 A 
ATOM      3  C   UNL     1       4.250   9.282   7.780  1.00  0.00     0.116 A 
ATOM      4  C   UNL     1       4.403   8.878   9.112  1.00  0.00     0.056 A 
ATOM      5  C   UNL     1       3.795   8.388   6.812  1.00  0.00     0.048 A 
ATOM      6  C   UNL     1       4.091   7.551   9.468  1.00  0.00     0.006 A 
ATOM      7  C   UNL     1       3.479   7.066   7.143  1.00  0.00     0.030 A 
ATOM      8  C   UNL     1       3.637   6.678   8.477  1.00  0.00     0.046 A 
ATOM      9  C   UNL     1       3.699   5.538  10.418  1.00  0.00     0.087 A 
ATOM     10  N   UNL     1       3.408   5.462   9.083  1.00  0.00    -0.361 N 
ATOM     11  H   UNL     1       3.072   4.635   8.609  1.00  0.00     0.166 HD
BRANCH   3  12
ATOM     12  O   UNL     1       4.551  10.563   7.428  1.00  0.00    -0.508 OA
ATOM     13  H   UNL     1       4.972  11.007   8.183  1.00  0.00     0.293 HD
ENDBRANCH   3  12
ENDBRANCH   1   2
BRANCH   1  14
ATOM     14  C   UNL     1       5.925   6.813  12.445  1.00  0.00     0.082 C 
BRANCH  14  15
ATOM     15  N   UNL     1       6.726   7.862  13.065  1.00  0.00    -0.330 NA
ATOM     16  H   UNL     1       7.694   7.776  12.757  1.00  0.00     0.118 HD
ATOM     17  H   UNL     1       6.736   7.733  14.075  1.00  0.00     0.118 HD
ENDBRANCH  14  15
ENDBRANCH   1  14
TORSDOF 4
ENDMDL
MODEL 8
REMARK VINA RESULT:    -4.974      2.023      2.644
REMARK INTER + INTRA:          -5.933
REMARK INTER:                  -5.850
REMARK INTRA:                  -0.083
REMARK UNBOUND:                -0.086
REMARK SMILES NCCc1c[nH]c2ccc(O)cc12
REMARK SMILES IDX 3 1 4 2 10 3 12 4 9 5 13 6 8 7 7 8 5 9 6 10 11 12 2 14 1 15
REMARK H PARENT 6 11 11 13 1 16 1 17
ROOT
ATOM      1  C   UNL     1       5.547   9.788   7.536  1.00  0.00     0.053 C 
ENDROOT
BRANCH   1   2
ATOM      2  C   UNL     1       4.594   8.663   7.612  1.00  0.00    -0.021 A 
ATOM      3  C   UNL     1       4.675   6.564  10.794  1.00  0.00     0.116 A 
ATOM      4  C   UNL     1       5.078   7.601   9.946  1.00  0.00     0.056 A 
ATOM      5  C   UNL     1       3.663   5.684  10.415  1.00  0.00     0.048 A 
ATOM      6  C   UNL     1       4.446   7.751   8.695  1.00  0.00     0.006 A 
ATOM      7  C   UNL     1       3.022   5.814   9.179  1.00  0.00     0.030 A 
ATOM      8  C   UNL     1       3.435   6.855   8.341  1.00  0.00     0.046 A 
ATOM      9  C   UNL     1       3.687   8.309   6.641  1.00  0.00     0.087 A 
ATOM     10  N   UNL     1       2.992   7.219   7.089  1.00  0.00    -0.361 N 
ATOM     11  H   UNL     1       2.260   6.747   6.576  1.00  0.00     0.166 HD
BRANCH   3  12
ATOM     12  O   UNL     1       5.281   6.414  12.006  1.00  0.00    -0.508 OA
ATOM     13  H   UNL     1       5.041   5.546  12.373  1.00  0.00     0.293 HD
ENDBRANCH   3  12
ENDBRANCH   1   2
BRANCH   1  14
ATOM     14  C   UNL     1       7.018   9.332   7.554  1.00  0.00     0.082 C 
BRANCH  14  15
ATOM     15  N   UNL     1       7.428   8.766   6.274  1.00  0.00    -0.330 NA
ATOM     16  H   UNL     1       6.642   8.271   5.854  1.00  0.00     0.118 HD
ATOM     17  H   UNL     1       8.156   8.070   6.426  1.00  0.00     0.118 HD
ENDBRANCH  14  15
ENDBRANCH   1  14
TORSDOF 4
ENDMDL
MODEL 9
REMARK VINA RESULT:    -4.955      3.068      4.512
REMARK INTER + INTRA:          -5.911
REMARK INTER:                  -5.809
REMARK INTRA:                  -0.102
REMARK UNBOUND:                -0.086
REMARK SMILES NCCc1c[nH]c2ccc(O)cc12
REMARK SMILES IDX 3 1 4 2 10 3 12 4 9 5 13 6 8 7 7 8 5 9 6 10 11 12 2 14 1 15
REMARK H PARENT 6 11 11 13 1 16 1 17
ROOT
ATOM      1  C   UNL     1       6.634   9.385  10.959  1.00  0.00     0.053 C 
ENDROOT
BRANCH   1   2
ATOM      2  C   UNL     1       5.629   8.316  11.124  1.00  0.00    -0.021 A 
ATOM      3  C   UNL     1       4.221   6.779   7.932  1.00  0.00     0.116 A 
ATOM      4  C   UNL     1       5.029   7.647   8.676  1.00  0.00     0.056 A 
ATOM      5  C   UNL     1       3.368   5.878   8.567  1.00  0.00     0.048 A 
ATOM      6  C   UNL     1       4.971   7.603  10.082  1.00  0.00     0.006 A 
ATOM      7  C   UNL     1       3.294   5.817   9.962  1.00  0.00     0.030 A 
ATOM      8  C   UNL     1       4.107   6.691  10.692  1.00  0.00     0.046 A 
ATOM      9  C   UNL     1       5.159   7.832  12.323  1.00  0.00     0.087 A 
ATOM     10  N   UNL     1       4.243   6.851  12.053  1.00  0.00    -0.361 N 
ATOM     11  H   UNL     1       3.738   6.322  12.750  1.00  0.00     0.166 HD
BRANCH   3  12
ATOM     12  O   UNL     1       4.272   6.815   6.570  1.00  0.00    -0.508 OA
ATOM     13  H   UNL     1       3.394   7.054   6.228  1.00  0.00     0.293 HD
ENDBRANCH   3  12
ENDBRANCH   1   2
BRANCH   1  14
ATOM     14  C   UNL     1       7.482   9.612  12.224  1.00  0.00     0.082 C 
BRANCH  14  15
ATOM     15  N   UNL     1       8.802   9.001  12.111  1.00  0.00    -0.330 NA
ATOM     16  H   UNL     1       8.724   7.996  12.269  1.00  0.00     0.118 HD
ATOM     17  H   UNL     1       9.408   9.359  12.847  1.00  0.00     0.118 HD
ENDBRANCH  14  15
ENDBRANCH   1  14
TORSDOF 4
ENDMDL
